VeraChem MOL file


 22 21  0  0  0  0  0  0  0  0999 V2000     
   19.8268   19.1163   26.2070 C   0  0  0  0  0  0  0  0  0  0  0  0
   20.5507   20.0928   26.2310 O   0  5  0  0  0  0  0  0  0  0  0  0
   19.3998   18.5822   27.2112 O   0  0  0  0  0  0  0  0  0  0  0  0
   19.4168   18.5082   24.8648 C   0  0  0  0  0  0  0  0  0  0  0  0
   18.3211   18.5090   24.8264 H   0  0  0  0  0  0  0  0  0  0  0  0
   19.7369   17.4596   24.8694 H   0  0  0  0  0  0  0  0  0  0  0  0
   19.9859   19.2247   23.6113 C   0  0  0  0  0  0  0  0  0  0  0  0
   19.6666   20.2761   23.6161 H   0  0  0  0  0  0  0  0  0  0  0  0
   21.0837   19.2256   23.6590 H   0  0  0  0  0  0  0  0  0  0  0  0
   19.5233   18.5472   22.3030 C   0  0  0  0  0  0  0  0  0  0  0  0
   18.4256   18.5475   22.2576 H   0  0  0  0  0  0  0  0  0  0  0  0
   19.8435   17.4962   22.3006 H   0  0  0  0  0  0  0  0  0  0  0  0
   20.0906   19.2614   21.0575 C   0  0  0  0  0  0  0  0  0  0  0  0
   19.7707   20.3125   21.0595 H   0  0  0  0  0  0  0  0  0  0  0  0
   21.1884   19.2614   21.1025 H   0  0  0  0  0  0  0  0  0  0  0  0
   19.6287   18.5850   19.7498 C   0  0  0  0  0  0  0  0  0  0  0  0
   18.5310   18.5850   19.7003 H   0  0  0  0  0  0  0  0  0  0  0  0
   19.9486   17.5338   19.7433 H   0  0  0  0  0  0  0  0  0  0  0  0
   20.1974   19.3012   18.5084 C   0  0  0  0  0  0  0  0  0  0  0  0
   19.8669   20.3476   18.4728 H   0  0  0  0  0  0  0  0  0  0  0  0
   19.8591   18.8075   17.5881 H   0  0  0  0  0  0  0  0  0  0  0  0
   21.2952   19.2884   18.5160 H   0  0  0  0  0  0  0  0  0  0  0  0
  1  2  1  0  0  0  0
  1  3  2  0  0  0  0
  1  4  1  0  0  0  0
  4  5  1  0  0  0  0
  4  6  1  0  0  0  0
  4  7  1  0  0  0  0
  7  8  1  0  0  0  0
  7  9  1  0  0  0  0
  7 10  1  0  0  0  0
 10 11  1  0  0  0  0
 10 12  1  0  0  0  0
 10 13  1  0  0  0  0
 13 14  1  0  0  0  0
 13 15  1  0  0  0  0
 13 16  1  0  0  0  0
 16 17  1  0  0  0  0
 16 18  1  0  0  0  0
 16 19  1  0  0  0  0
 19 20  1  0  0  0  0
 19 21  1  0  0  0  0
 19 22  1  0  0  0  0
M  END
> <VConfSearch Rank>
1

> <Conf_Id>
0

> <Delta U+W>
0.000

> <U+W>
-53.159

> <U>
6.763

> <W>
-59.922

> <W(PB)>
-62.256

> <W(SA)>
2.334

> <Valence>
7.600

> <Coulomb>
-2.139

> <VdW>
1.302

> <VdW6>
-6.786

> <VdW12>
8.088

> <Bond>
0.134

> <Angle>
2.720

> <Pdih>
4.746

> <Idih>
0.000

> <Tether>
0.000

$$$$
VeraChem MOL file


 22 21  0  0  0  0  0  0  0  0999 V2000     
   19.8331   19.1334   26.1875 C   0  0  0  0  0  0  0  0  0  0  0  0
   20.0810   20.2320   26.6438 O   0  5  0  0  0  0  0  0  0  0  0  0
   20.1567   18.0927   26.7249 O   0  0  0  0  0  0  0  0  0  0  0  0
   19.0949   19.0568   24.8558 C   0  0  0  0  0  0  0  0  0  0  0  0
   18.4141   19.9143   24.7938 H   0  0  0  0  0  0  0  0  0  0  0  0
   18.4762   18.1513   24.8608 H   0  0  0  0  0  0  0  0  0  0  0  0
   20.0510   19.0442   23.6377 C   0  0  0  0  0  0  0  0  0  0  0  0
   20.6721   19.9505   23.6545 H   0  0  0  0  0  0  0  0  0  0  0  0
   20.7342   18.1876   23.7215 H   0  0  0  0  0  0  0  0  0  0  0  0
   19.2797   18.9663   22.3024 C   0  0  0  0  0  0  0  0  0  0  0  0
   18.5968   19.8232   22.2224 H   0  0  0  0  0  0  0  0  0  0  0  0
   18.6589   18.0599   22.2894 H   0  0  0  0  0  0  0  0  0  0  0  0
   20.2353   18.9538   21.0900 C   0  0  0  0  0  0  0  0  0  0  0  0
   20.8563   19.8601   21.1027 H   0  0  0  0  0  0  0  0  0  0  0  0
   20.9184   18.0970   21.1697 H   0  0  0  0  0  0  0  0  0  0  0  0
   19.4652   18.8760   19.7551 C   0  0  0  0  0  0  0  0  0  0  0  0
   18.7822   19.7326   19.6708 H   0  0  0  0  0  0  0  0  0  0  0  0
   18.8443   17.9696   19.7378 H   0  0  0  0  0  0  0  0  0  0  0  0
   20.4230   18.8638   18.5468 C   0  0  0  0  0  0  0  0  0  0  0  0
   21.0975   17.9985   18.5890 H   0  0  0  0  0  0  0  0  0  0  0  0
   21.0351   19.7749   18.5216 H   0  0  0  0  0  0  0  0  0  0  0  0
   19.8590   18.8083   17.6066 H   0  0  0  0  0  0  0  0  0  0  0  0
  1  2  1  0  0  0  0
  1  3  2  0  0  0  0
  1  4  1  0  0  0  0
  4  5  1  0  0  0  0
  4  6  1  0  0  0  0
  4  7  1  0  0  0  0
  7  8  1  0  0  0  0
  7  9  1  0  0  0  0
  7 10  1  0  0  0  0
 10 11  1  0  0  0  0
 10 12  1  0  0  0  0
 10 13  1  0  0  0  0
 13 14  1  0  0  0  0
 13 15  1  0  0  0  0
 13 16  1  0  0  0  0
 16 17  1  0  0  0  0
 16 18  1  0  0  0  0
 16 19  1  0  0  0  0
 19 20  1  0  0  0  0
 19 21  1  0  0  0  0
 19 22  1  0  0  0  0
M  END
> <VConfSearch Rank>
2

> <Conf_Id>
10

> <Delta U+W>
-1.291

> <U+W>
-54.451

> <U>
5.779

> <W>
-60.230

> <W(PB)>
-62.557

> <W(SA)>
2.328

> <Valence>
7.101

> <Coulomb>
-2.079

> <VdW>
0.757

> <VdW6>
-6.496

> <VdW12>
7.253

> <Bond>
0.100

> <Angle>
2.262

> <Pdih>
4.738

> <Idih>
0.001

> <Tether>
0.000

$$$$
VeraChem MOL file


 22 21  0  0  0  0  0  0  0  0999 V2000     
   19.9826   19.0927   26.1000 C   0  0  0  0  0  0  0  0  0  0  0  0
   20.6952   19.9849   26.5155 O   0  5  0  0  0  0  0  0  0  0  0  0
   19.0356   18.6456   26.7161 O   0  0  0  0  0  0  0  0  0  0  0  0
   20.2805   18.5170   24.7201 C   0  0  0  0  0  0  0  0  0  0  0  0
   19.9973   17.4575   24.7245 H   0  0  0  0  0  0  0  0  0  0  0  0
   21.3642   18.5622   24.5587 H   0  0  0  0  0  0  0  0  0  0  0  0
   19.5393   19.2635   23.5837 C   0  0  0  0  0  0  0  0  0  0  0  0
   18.4567   19.2203   23.7673 H   0  0  0  0  0  0  0  0  0  0  0  0
   19.8238   20.3248   23.6006 H   0  0  0  0  0  0  0  0  0  0  0  0
   19.8574   18.6618   22.1976 C   0  0  0  0  0  0  0  0  0  0  0  0
   19.5700   17.6016   22.1830 H   0  0  0  0  0  0  0  0  0  0  0  0
   20.9411   18.7034   22.0275 H   0  0  0  0  0  0  0  0  0  0  0  0
   19.1181   19.4128   21.0664 C   0  0  0  0  0  0  0  0  0  0  0  0
   18.0421   19.4231   21.2879 H   0  0  0  0  0  0  0  0  0  0  0  0
   19.4415   20.4625   21.0458 H   0  0  0  0  0  0  0  0  0  0  0  0
   19.3257   18.7804   19.6706 C   0  0  0  0  0  0  0  0  0  0  0  0
   18.6782   19.2979   18.9493 H   0  0  0  0  0  0  0  0  0  0  0  0
   18.9974   17.7319   19.6856 H   0  0  0  0  0  0  0  0  0  0  0  0
   20.7856   18.8604   19.1742 C   0  0  0  0  0  0  0  0  0  0  0  0
   20.8631   18.4806   18.1472 H   0  0  0  0  0  0  0  0  0  0  0  0
   21.4558   18.2596   19.8016 H   0  0  0  0  0  0  0  0  0  0  0  0
   21.1460   19.8973   19.1790 H   0  0  0  0  0  0  0  0  0  0  0  0
  1  2  1  0  0  0  0
  1  3  2  0  0  0  0
  1  4  1  0  0  0  0
  4  5  1  0  0  0  0
  4  6  1  0  0  0  0
  4  7  1  0  0  0  0
  7  8  1  0  0  0  0
  7  9  1  0  0  0  0
  7 10  1  0  0  0  0
 10 11  1  0  0  0  0
 10 12  1  0  0  0  0
 10 13  1  0  0  0  0
 13 14  1  0  0  0  0
 13 15  1  0  0  0  0
 13 16  1  0  0  0  0
 16 17  1  0  0  0  0
 16 18  1  0  0  0  0
 16 19  1  0  0  0  0
 19 20  1  0  0  0  0
 19 21  1  0  0  0  0
 19 22  1  0  0  0  0
M  END
> <VConfSearch Rank>
3

> <Conf_Id>
37

> <Delta U+W>
-0.345

> <U+W>
-53.504

> <U>
6.751

> <W>
-60.255

> <W(PB)>
-62.592

> <W(SA)>
2.336

> <Valence>
7.602

> <Coulomb>
-1.744

> <VdW>
0.894

> <VdW6>
-7.110

> <VdW12>
8.004

> <Bond>
0.131

> <Angle>
2.489

> <Pdih>
4.982

> <Idih>
0.001

> <Tether>
0.000

$$$$
VeraChem MOL file


 22 21  0  0  0  0  0  0  0  0999 V2000     
   19.7633   19.2553   26.0933 C   0  0  0  0  0  0  0  0  0  0  0  0
   20.3946   20.2079   26.5063 O   0  5  0  0  0  0  0  0  0  0  0  0
   19.5854   18.2375   26.7328 O   0  0  0  0  0  0  0  0  0  0  0  0
   19.1805   19.3330   24.6867 C   0  0  0  0  0  0  0  0  0  0  0  0
   18.9165   20.3780   24.4845 H   0  0  0  0  0  0  0  0  0  0  0  0
   18.2490   18.7545   24.6714 H   0  0  0  0  0  0  0  0  0  0  0  0
   20.1534   18.8080   23.6023 C   0  0  0  0  0  0  0  0  0  0  0  0
   21.0854   19.3891   23.6389 H   0  0  0  0  0  0  0  0  0  0  0  0
   20.4183   17.7655   23.8269 H   0  0  0  0  0  0  0  0  0  0  0  0
   19.5402   18.8972   22.1880 C   0  0  0  0  0  0  0  0  0  0  0  0
   19.2728   19.9408   21.9769 H   0  0  0  0  0  0  0  0  0  0  0  0
   18.6100   18.3137   22.1538 H   0  0  0  0  0  0  0  0  0  0  0  0
   20.5167   18.3756   21.1088 C   0  0  0  0  0  0  0  0  0  0  0  0
   21.4278   18.9895   21.1060 H   0  0  0  0  0  0  0  0  0  0  0  0
   20.8295   17.3560   21.3725 H   0  0  0  0  0  0  0  0  0  0  0  0
   19.9064   18.3497   19.6882 C   0  0  0  0  0  0  0  0  0  0  0  0
   18.9983   17.7312   19.6856 H   0  0  0  0  0  0  0  0  0  0  0  0
   20.6171   17.8601   19.0082 H   0  0  0  0  0  0  0  0  0  0  0  0
   19.5794   19.7548   19.1376 C   0  0  0  0  0  0  0  0  0  0  0  0
   20.4664   20.4012   19.1586 H   0  0  0  0  0  0  0  0  0  0  0  0
   18.7861   20.2390   19.7205 H   0  0  0  0  0  0  0  0  0  0  0  0
   19.2340   19.6886   18.0978 H   0  0  0  0  0  0  0  0  0  0  0  0
  1  2  1  0  0  0  0
  1  3  2  0  0  0  0
  1  4  1  0  0  0  0
  4  5  1  0  0  0  0
  4  6  1  0  0  0  0
  4  7  1  0  0  0  0
  7  8  1  0  0  0  0
  7  9  1  0  0  0  0
  7 10  1  0  0  0  0
 10 11  1  0  0  0  0
 10 12  1  0  0  0  0
 10 13  1  0  0  0  0
 13 14  1  0  0  0  0
 13 15  1  0  0  0  0
 13 16  1  0  0  0  0
 16 17  1  0  0  0  0
 16 18  1  0  0  0  0
 16 19  1  0  0  0  0
 19 20  1  0  0  0  0
 19 21  1  0  0  0  0
 19 22  1  0  0  0  0
M  END
> <VConfSearch Rank>
4

> <Conf_Id>
38

> <Delta U+W>
-0.439

> <U+W>
-53.598

> <U>
6.751

> <W>
-60.350

> <W(PB)>
-62.659

> <W(SA)>
2.309

> <Valence>
7.602

> <Coulomb>
-1.744

> <VdW>
0.893

> <VdW6>
-7.110

> <VdW12>
8.004

> <Bond>
0.131

> <Angle>
2.489

> <Pdih>
4.981

> <Idih>
0.001

> <Tether>
0.000

$$$$
VeraChem MOL file


 22 21  0  0  0  0  0  0  0  0999 V2000     
   19.7116   19.0913   25.9931 C   0  0  0  0  0  0  0  0  0  0  0  0
   20.0089   20.0630   26.6594 O   0  5  0  0  0  0  0  0  0  0  0  0
   19.6824   17.9584   26.4314 O   0  0  0  0  0  0  0  0  0  0  0  0
   19.3787   19.3027   24.5204 C   0  0  0  0  0  0  0  0  0  0  0  0
   18.9134   20.2900   24.4153 H   0  0  0  0  0  0  0  0  0  0  0  0
   18.6270   18.5568   24.2391 H   0  0  0  0  0  0  0  0  0  0  0  0
   20.6250   19.1982   23.6031 C   0  0  0  0  0  0  0  0  0  0  0  0
   21.3932   19.8905   23.9747 H   0  0  0  0  0  0  0  0  0  0  0  0
   21.0542   18.1896   23.6794 H   0  0  0  0  0  0  0  0  0  0  0  0
   20.3346   19.5325   22.1203 C   0  0  0  0  0  0  0  0  0  0  0  0
   21.2930   19.5704   21.5870 H   0  0  0  0  0  0  0  0  0  0  0  0
   19.8980   20.5379   22.0485 H   0  0  0  0  0  0  0  0  0  0  0  0
   19.4021   18.5070   21.4297 C   0  0  0  0  0  0  0  0  0  0  0  0
   19.8380   17.5014   21.5032 H   0  0  0  0  0  0  0  0  0  0  0  0
   18.4423   18.4703   21.9601 H   0  0  0  0  0  0  0  0  0  0  0  0
   19.1157   18.8391   19.9465 C   0  0  0  0  0  0  0  0  0  0  0  0
   18.6901   19.8491   19.8676 H   0  0  0  0  0  0  0  0  0  0  0  0
   18.3462   18.1487   19.5743 H   0  0  0  0  0  0  0  0  0  0  0  0
   20.3609   18.7267   19.0402 C   0  0  0  0  0  0  0  0  0  0  0  0
   21.1135   19.4828   19.2958 H   0  0  0  0  0  0  0  0  0  0  0  0
   20.0844   18.8770   17.9886 H   0  0  0  0  0  0  0  0  0  0  0  0
   20.8236   17.7352   19.1293 H   0  0  0  0  0  0  0  0  0  0  0  0
  1  2  1  0  0  0  0
  1  3  2  0  0  0  0
  1  4  1  0  0  0  0
  4  5  1  0  0  0  0
  4  6  1  0  0  0  0
  4  7  1  0  0  0  0
  7  8  1  0  0  0  0
  7  9  1  0  0  0  0
  7 10  1  0  0  0  0
 10 11  1  0  0  0  0
 10 12  1  0  0  0  0
 10 13  1  0  0  0  0
 13 14  1  0  0  0  0
 13 15  1  0  0  0  0
 13 16  1  0  0  0  0
 16 17  1  0  0  0  0
 16 18  1  0  0  0  0
 16 19  1  0  0  0  0
 19 20  1  0  0  0  0
 19 21  1  0  0  0  0
 19 22  1  0  0  0  0
M  END
> <VConfSearch Rank>
5

> <Conf_Id>
60

> <Delta U+W>
0.386

> <U+W>
-52.773

> <U>
7.689

> <W>
-60.463

> <W(PB)>
-62.772

> <W(SA)>
2.309

> <Valence>
8.197

> <Coulomb>
-1.561

> <VdW>
1.053

> <VdW6>
-7.737

> <VdW12>
8.790

> <Bond>
0.181

> <Angle>
2.780

> <Pdih>
5.235

> <Idih>
0.001

> <Tether>
0.000

$$$$
VeraChem MOL file


 22 21  0  0  0  0  0  0  0  0999 V2000     
   19.7515   19.2456   25.9865 C   0  0  0  0  0  0  0  0  0  0  0  0
   20.2956   20.2752   26.3335 O   0  5  0  0  0  0  0  0  0  0  0  0
   19.5429   18.3101   26.7334 O   0  0  0  0  0  0  0  0  0  0  0  0
   19.3275   19.1110   24.5283 C   0  0  0  0  0  0  0  0  0  0  0  0
   19.0376   20.1061   24.1732 H   0  0  0  0  0  0  0  0  0  0  0  0
   18.4326   18.4783   24.4915 H   0  0  0  0  0  0  0  0  0  0  0  0
   20.4431   18.5124   23.6323 C   0  0  0  0  0  0  0  0  0  0  0  0
   21.3165   19.1792   23.6380 H   0  0  0  0  0  0  0  0  0  0  0  0
   20.7758   17.5627   24.0737 H   0  0  0  0  0  0  0  0  0  0  0  0
   19.9949   18.2496   22.1747 C   0  0  0  0  0  0  0  0  0  0  0  0
   19.1169   17.5895   22.1731 H   0  0  0  0  0  0  0  0  0  0  0  0
   20.7980   17.7008   21.6665 H   0  0  0  0  0  0  0  0  0  0  0  0
   19.6775   19.5437   21.3857 C   0  0  0  0  0  0  0  0  0  0  0  0
   18.8724   20.0919   21.8911 H   0  0  0  0  0  0  0  0  0  0  0  0
   20.5550   20.2045   21.3890 H   0  0  0  0  0  0  0  0  0  0  0  0
   19.2339   19.2807   19.9276 C   0  0  0  0  0  0  0  0  0  0  0  0
   18.8990   20.2293   19.4858 H   0  0  0  0  0  0  0  0  0  0  0  0
   18.3632   18.6106   19.9194 H   0  0  0  0  0  0  0  0  0  0  0  0
   20.3530   18.6907   19.0419 C   0  0  0  0  0  0  0  0  0  0  0  0
   21.2471   19.3273   19.0625 H   0  0  0  0  0  0  0  0  0  0  0  0
   20.0169   18.6143   17.9998 H   0  0  0  0  0  0  0  0  0  0  0  0
   20.6385   17.6844   19.3723 H   0  0  0  0  0  0  0  0  0  0  0  0
  1  2  1  0  0  0  0
  1  3  2  0  0  0  0
  1  4  1  0  0  0  0
  4  5  1  0  0  0  0
  4  6  1  0  0  0  0
  4  7  1  0  0  0  0
  7  8  1  0  0  0  0
  7  9  1  0  0  0  0
  7 10  1  0  0  0  0
 10 11  1  0  0  0  0
 10 12  1  0  0  0  0
 10 13  1  0  0  0  0
 13 14  1  0  0  0  0
 13 15  1  0  0  0  0
 13 16  1  0  0  0  0
 16 17  1  0  0  0  0
 16 18  1  0  0  0  0
 16 19  1  0  0  0  0
 19 20  1  0  0  0  0
 19 21  1  0  0  0  0
 19 22  1  0  0  0  0
M  END
> <VConfSearch Rank>
6

> <Conf_Id>
28

> <Delta U+W>
0.351

> <U+W>
-52.808

> <U>
7.689

> <W>
-60.498

> <W(PB)>
-62.768

> <W(SA)>
2.270

> <Valence>
8.197

> <Coulomb>
-1.561

> <VdW>
1.053

> <VdW6>
-7.737

> <VdW12>
8.791

> <Bond>
0.181

> <Angle>
2.780

> <Pdih>
5.235

> <Idih>
0.001

> <Tether>
0.000

$$$$
VeraChem MOL file


 22 21  0  0  0  0  0  0  0  0999 V2000     
   19.6904   19.2512   25.9774 C   0  0  0  0  0  0  0  0  0  0  0  0
   20.5533   19.9143   26.5178 O   0  5  0  0  0  0  0  0  0  0  0  0
   18.5125   19.3125   26.2697 O   0  0  0  0  0  0  0  0  0  0  0  0
   20.1058   18.3044   24.8569 C   0  0  0  0  0  0  0  0  0  0  0  0
   19.4317   17.4396   24.8739 H   0  0  0  0  0  0  0  0  0  0  0  0
   21.1138   17.9345   25.0800 H   0  0  0  0  0  0  0  0  0  0  0  0
   20.0785   18.9753   23.4614 C   0  0  0  0  0  0  0  0  0  0  0  0
   19.0660   19.3546   23.2702 H   0  0  0  0  0  0  0  0  0  0  0  0
   20.7513   19.8440   23.4634 H   0  0  0  0  0  0  0  0  0  0  0  0
   20.4991   17.9922   22.3444 C   0  0  0  0  0  0  0  0  0  0  0  0
   19.7953   17.1495   22.3077 H   0  0  0  0  0  0  0  0  0  0  0  0
   21.4807   17.5668   22.5945 H   0  0  0  0  0  0  0  0  0  0  0  0
   20.5923   18.6502   20.9473 C   0  0  0  0  0  0  0  0  0  0  0  0
   21.2991   19.4904   20.9825 H   0  0  0  0  0  0  0  0  0  0  0  0
   21.0150   17.9182   20.2455 H   0  0  0  0  0  0  0  0  0  0  0  0
   19.2304   19.1375   20.4032 C   0  0  0  0  0  0  0  0  0  0  0  0
   18.8256   19.9277   21.0491 H   0  0  0  0  0  0  0  0  0  0  0  0
   18.5079   18.3098   20.4173 H   0  0  0  0  0  0  0  0  0  0  0  0
   19.3577   19.6814   18.9660 C   0  0  0  0  0  0  0  0  0  0  0  0
   19.7245   18.9045   18.2824 H   0  0  0  0  0  0  0  0  0  0  0  0
   20.0545   20.5290   18.9275 H   0  0  0  0  0  0  0  0  0  0  0  0
   18.3837   20.0263   18.5953 H   0  0  0  0  0  0  0  0  0  0  0  0
  1  2  1  0  0  0  0
  1  3  2  0  0  0  0
  1  4  1  0  0  0  0
  4  5  1  0  0  0  0
  4  6  1  0  0  0  0
  4  7  1  0  0  0  0
  7  8  1  0  0  0  0
  7  9  1  0  0  0  0
  7 10  1  0  0  0  0
 10 11  1  0  0  0  0
 10 12  1  0  0  0  0
 10 13  1  0  0  0  0
 13 14  1  0  0  0  0
 13 15  1  0  0  0  0
 13 16  1  0  0  0  0
 16 17  1  0  0  0  0
 16 18  1  0  0  0  0
 16 19  1  0  0  0  0
 19 20  1  0  0  0  0
 19 21  1  0  0  0  0
 19 22  1  0  0  0  0
M  END
> <VConfSearch Rank>
7

> <Conf_Id>
50

> <Delta U+W>
-0.486

> <U+W>
-53.646

> <U>
7.026

> <W>
-60.672

> <W(PB)>
-62.964

> <W(SA)>
2.292

> <Valence>
7.637

> <Coulomb>
-1.488

> <VdW>
0.877

> <VdW6>
-7.165

> <VdW12>
8.043

> <Bond>
0.134

> <Angle>
2.513

> <Pdih>
4.990

> <Idih>
0.001

> <Tether>
0.000

$$$$
VeraChem MOL file


 22 21  0  0  0  0  0  0  0  0999 V2000     
   20.0042   19.0182   25.9870 C   0  0  0  0  0  0  0  0  0  0  0  0
   20.3678   20.0519   26.5122 O   0  5  0  0  0  0  0  0  0  0  0  0
   20.3923   17.9180   26.3267 O   0  0  0  0  0  0  0  0  0  0  0  0
   19.0225   19.1081   24.8240 C   0  0  0  0  0  0  0  0  0  0  0  0
   18.3683   19.9711   24.9967 H   0  0  0  0  0  0  0  0  0  0  0  0
   18.3897   18.2126   24.8423 H   0  0  0  0  0  0  0  0  0  0  0  0
   19.7267   19.2363   23.4508 C   0  0  0  0  0  0  0  0  0  0  0  0
   20.3630   20.1321   23.4518 H   0  0  0  0  0  0  0  0  0  0  0  0
   20.3897   18.3726   23.3103 H   0  0  0  0  0  0  0  0  0  0  0  0
   18.7085   19.3210   22.2901 C   0  0  0  0  0  0  0  0  0  0  0  0
   18.0080   20.1436   22.4891 H   0  0  0  0  0  0  0  0  0  0  0  0
   18.1073   18.4020   22.2565 H   0  0  0  0  0  0  0  0  0  0  0  0
   19.3655   19.5605   20.9101 C   0  0  0  0  0  0  0  0  0  0  0  0
   18.5707   19.7322   20.1714 H   0  0  0  0  0  0  0  0  0  0  0  0
   19.9636   20.4815   20.9421 H   0  0  0  0  0  0  0  0  0  0  0  0
   20.2465   18.3835   20.4340 C   0  0  0  0  0  0  0  0  0  0  0  0
   19.6630   17.4527   20.4523 H   0  0  0  0  0  0  0  0  0  0  0  0
   21.0941   18.2443   21.1178 H   0  0  0  0  0  0  0  0  0  0  0  0
   20.7861   18.6215   19.0092 C   0  0  0  0  0  0  0  0  0  0  0  0
   21.3970   19.5329   18.9682 H   0  0  0  0  0  0  0  0  0  0  0  0
   19.9637   18.7271   18.2897 H   0  0  0  0  0  0  0  0  0  0  0  0
   21.4119   17.7792   18.6870 H   0  0  0  0  0  0  0  0  0  0  0  0
  1  2  1  0  0  0  0
  1  3  2  0  0  0  0
  1  4  1  0  0  0  0
  4  5  1  0  0  0  0
  4  6  1  0  0  0  0
  4  7  1  0  0  0  0
  7  8  1  0  0  0  0
  7  9  1  0  0  0  0
  7 10  1  0  0  0  0
 10 11  1  0  0  0  0
 10 12  1  0  0  0  0
 10 13  1  0  0  0  0
 13 14  1  0  0  0  0
 13 15  1  0  0  0  0
 13 16  1  0  0  0  0
 16 17  1  0  0  0  0
 16 18  1  0  0  0  0
 16 19  1  0  0  0  0
 19 20  1  0  0  0  0
 19 21  1  0  0  0  0
 19 22  1  0  0  0  0
M  END
> <VConfSearch Rank>
8

> <Conf_Id>
51

> <Delta U+W>
-0.517

> <U+W>
-53.677

> <U>
7.026

> <W>
-60.703

> <W(PB)>
-63.007

> <W(SA)>
2.304

> <Valence>
7.638

> <Coulomb>
-1.488

> <VdW>
0.877

> <VdW6>
-7.165

> <VdW12>
8.042

> <Bond>
0.134

> <Angle>
2.513

> <Pdih>
4.990

> <Idih>
0.001

> <Tether>
0.000

$$$$
VeraChem MOL file


 22 21  0  0  0  0  0  0  0  0999 V2000     
   19.6496   19.2360   25.7899 C   0  0  0  0  0  0  0  0  0  0  0  0
   20.2481   20.1993   26.2267 O   0  5  0  0  0  0  0  0  0  0  0  0
   18.4447   19.1000   25.8705 O   0  0  0  0  0  0  0  0  0  0  0  0
   20.4595   18.1291   25.1208 C   0  0  0  0  0  0  0  0  0  0  0  0
   19.8531   17.2155   25.0992 H   0  0  0  0  0  0  0  0  0  0  0  0
   21.3237   17.9213   25.7628 H   0  0  0  0  0  0  0  0  0  0  0  0
   20.9486   18.4811   23.6918 C   0  0  0  0  0  0  0  0  0  0  0  0
   21.5304   19.4128   23.7255 H   0  0  0  0  0  0  0  0  0  0  0  0
   21.6319   17.6941   23.3451 H   0  0  0  0  0  0  0  0  0  0  0  0
   19.7858   18.6263   22.6847 C   0  0  0  0  0  0  0  0  0  0  0  0
   19.1066   19.4240   23.0160 H   0  0  0  0  0  0  0  0  0  0  0  0
   19.1997   17.6972   22.6645 H   0  0  0  0  0  0  0  0  0  0  0  0
   20.2970   18.9454   21.2633 C   0  0  0  0  0  0  0  0  0  0  0  0
   20.8829   19.8746   21.2844 H   0  0  0  0  0  0  0  0  0  0  0  0
   20.9742   18.1476   20.9286 H   0  0  0  0  0  0  0  0  0  0  0  0
   19.1362   19.0913   20.2571 C   0  0  0  0  0  0  0  0  0  0  0  0
   18.4576   19.8898   20.5878 H   0  0  0  0  0  0  0  0  0  0  0  0
   18.5488   18.1630   20.2321 H   0  0  0  0  0  0  0  0  0  0  0  0
   19.6505   19.4106   18.8391 C   0  0  0  0  0  0  0  0  0  0  0  0
   20.2157   20.3518   18.8289 H   0  0  0  0  0  0  0  0  0  0  0  0
   18.8125   19.5109   18.1371 H   0  0  0  0  0  0  0  0  0  0  0  0
   20.3076   18.6120   18.4705 H   0  0  0  0  0  0  0  0  0  0  0  0
  1  2  1  0  0  0  0
  1  3  2  0  0  0  0
  1  4  1  0  0  0  0
  4  5  1  0  0  0  0
  4  6  1  0  0  0  0
  4  7  1  0  0  0  0
  7  8  1  0  0  0  0
  7  9  1  0  0  0  0
  7 10  1  0  0  0  0
 10 11  1  0  0  0  0
 10 12  1  0  0  0  0
 10 13  1  0  0  0  0
 13 14  1  0  0  0  0
 13 15  1  0  0  0  0
 13 16  1  0  0  0  0
 16 17  1  0  0  0  0
 16 18  1  0  0  0  0
 16 19  1  0  0  0  0
 19 20  1  0  0  0  0
 19 21  1  0  0  0  0
 19 22  1  0  0  0  0
M  END
> <VConfSearch Rank>
9

> <Conf_Id>
43

> <Delta U+W>
-0.129

> <U+W>
-53.289

> <U>
7.937

> <W>
-61.225

> <W(PB)>
-63.523

> <W(SA)>
2.297

> <Valence>
7.358

> <Coulomb>
-0.022

> <VdW>
0.601

> <VdW6>
-7.363

> <VdW12>
7.964

> <Bond>
0.121

> <Angle>
2.425

> <Pdih>
4.811

> <Idih>
0.000

> <Tether>
0.000

$$$$
VeraChem MOL file


 22 21  0  0  0  0  0  0  0  0999 V2000     
   20.0090   18.9694   25.8009 C   0  0  0  0  0  0  0  0  0  0  0  0
   20.7402   19.8342   26.2416 O   0  5  0  0  0  0  0  0  0  0  0  0
   20.2242   17.7797   25.9242 O   0  0  0  0  0  0  0  0  0  0  0  0
   18.7421   19.4033   25.0688 C   0  0  0  0  0  0  0  0  0  0  0  0
   18.2683   20.1881   25.6701 H   0  0  0  0  0  0  0  0  0  0  0  0
   18.0445   18.5573   25.0444 H   0  0  0  0  0  0  0  0  0  0  0  0
   18.9932   19.9318   23.6326 C   0  0  0  0  0  0  0  0  0  0  0  0
   18.0564   20.3467   23.2366 H   0  0  0  0  0  0  0  0  0  0  0  0
   19.7148   20.7598   23.6705 H   0  0  0  0  0  0  0  0  0  0  0  0
   19.5078   18.8325   22.6763 C   0  0  0  0  0  0  0  0  0  0  0  0
   18.7895   18.0016   22.6521 H   0  0  0  0  0  0  0  0  0  0  0  0
   20.4542   18.4242   23.0570 H   0  0  0  0  0  0  0  0  0  0  0  0
   19.7207   19.3729   21.2459 C   0  0  0  0  0  0  0  0  0  0  0  0
   18.7750   19.7793   20.8619 H   0  0  0  0  0  0  0  0  0  0  0  0
   20.4392   20.2038   21.2710 H   0  0  0  0  0  0  0  0  0  0  0  0
   20.2353   18.2759   20.2905 C   0  0  0  0  0  0  0  0  0  0  0  0
   19.5183   17.4437   20.2616 H   0  0  0  0  0  0  0  0  0  0  0  0
   21.1824   17.8682   20.6705 H   0  0  0  0  0  0  0  0  0  0  0  0
   20.4474   18.8193   18.8633 C   0  0  0  0  0  0  0  0  0  0  0  0
   19.5080   19.2052   18.4463 H   0  0  0  0  0  0  0  0  0  0  0  0
   20.8132   18.0265   18.1978 H   0  0  0  0  0  0  0  0  0  0  0  0
   21.1846   19.6329   18.8583 H   0  0  0  0  0  0  0  0  0  0  0  0
  1  2  1  0  0  0  0
  1  3  2  0  0  0  0
  1  4  1  0  0  0  0
  4  5  1  0  0  0  0
  4  6  1  0  0  0  0
  4  7  1  0  0  0  0
  7  8  1  0  0  0  0
  7  9  1  0  0  0  0
  7 10  1  0  0  0  0
 10 11  1  0  0  0  0
 10 12  1  0  0  0  0
 10 13  1  0  0  0  0
 13 14  1  0  0  0  0
 13 15  1  0  0  0  0
 13 16  1  0  0  0  0
 16 17  1  0  0  0  0
 16 18  1  0  0  0  0
 16 19  1  0  0  0  0
 19 20  1  0  0  0  0
 19 21  1  0  0  0  0
 19 22  1  0  0  0  0
M  END
> <VConfSearch Rank>
10

> <Conf_Id>
44

> <Delta U+W>
-0.155

> <U+W>
-53.314

> <U>
7.937

> <W>
-61.252

> <W(PB)>
-63.556

> <W(SA)>
2.304

> <Valence>
7.358

> <Coulomb>
-0.021

> <VdW>
0.600

> <VdW6>
-7.363

> <VdW12>
7.964

> <Bond>
0.121

> <Angle>
2.425

> <Pdih>
4.811

> <Idih>
0.001

> <Tether>
0.000

$$$$
VeraChem MOL file


 22 21  0  0  0  0  0  0  0  0999 V2000     
   19.8582   19.1115   25.8408 C   0  0  0  0  0  0  0  0  0  0  0  0
   20.4571   20.0898   26.2425 O   0  5  0  0  0  0  0  0  0  0  0  0
   20.0834   17.9809   26.2252 O   0  0  0  0  0  0  0  0  0  0  0  0
   18.7503   19.3188   24.8118 C   0  0  0  0  0  0  0  0  0  0  0  0
   18.1387   20.1615   25.1551 H   0  0  0  0  0  0  0  0  0  0  0  0
   18.1012   18.4347   24.8124 H   0  0  0  0  0  0  0  0  0  0  0  0
   19.2650   19.6039   23.3767 C   0  0  0  0  0  0  0  0  0  0  0  0
   18.4098   19.8899   22.7515 H   0  0  0  0  0  0  0  0  0  0  0  0
   19.9450   20.4668   23.3989 H   0  0  0  0  0  0  0  0  0  0  0  0
   19.9842   18.3849   22.7507 C   0  0  0  0  0  0  0  0  0  0  0  0
   19.2901   17.5355   22.6906 H   0  0  0  0  0  0  0  0  0  0  0  0
   20.8017   18.0694   23.4134 H   0  0  0  0  0  0  0  0  0  0  0  0
   20.5767   18.6706   21.3503 C   0  0  0  0  0  0  0  0  0  0  0  0
   21.2706   19.5202   21.4109 H   0  0  0  0  0  0  0  0  0  0  0  0
   21.1753   17.8023   21.0428 H   0  0  0  0  0  0  0  0  0  0  0  0
   19.5058   18.9479   20.2711 C   0  0  0  0  0  0  0  0  0  0  0  0
   18.9470   19.8602   20.5176 H   0  0  0  0  0  0  0  0  0  0  0  0
   18.7802   18.1231   20.2484 H   0  0  0  0  0  0  0  0  0  0  0  0
   20.1394   19.1107   18.8748 C   0  0  0  0  0  0  0  0  0  0  0  0
   20.8503   19.9473   18.8617 H   0  0  0  0  0  0  0  0  0  0  0  0
   19.3672   19.3103   18.1205 H   0  0  0  0  0  0  0  0  0  0  0  0
   20.6758   18.2001   18.5777 H   0  0  0  0  0  0  0  0  0  0  0  0
  1  2  1  0  0  0  0
  1  3  2  0  0  0  0
  1  4  1  0  0  0  0
  4  5  1  0  0  0  0
  4  6  1  0  0  0  0
  4  7  1  0  0  0  0
  7  8  1  0  0  0  0
  7  9  1  0  0  0  0
  7 10  1  0  0  0  0
 10 11  1  0  0  0  0
 10 12  1  0  0  0  0
 10 13  1  0  0  0  0
 13 14  1  0  0  0  0
 13 15  1  0  0  0  0
 13 16  1  0  0  0  0
 16 17  1  0  0  0  0
 16 18  1  0  0  0  0
 16 19  1  0  0  0  0
 19 20  1  0  0  0  0
 19 21  1  0  0  0  0
 19 22  1  0  0  0  0
M  END
> <VConfSearch Rank>
11

> <Conf_Id>
53

> <Delta U+W>
0.723

> <U+W>
-52.436

> <U>
8.587

> <W>
-61.022

> <W(PB)>
-63.285

> <W(SA)>
2.263

> <Valence>
7.933

> <Coulomb>
-0.124

> <VdW>
0.778

> <VdW6>
-7.981

> <VdW12>
8.759

> <Bond>
0.160

> <Angle>
2.698

> <Pdih>
5.074

> <Idih>
0.001

> <Tether>
0.000

$$$$
VeraChem MOL file


 22 21  0  0  0  0  0  0  0  0999 V2000     
   20.2762   19.0517   25.6502 C   0  0  0  0  0  0  0  0  0  0  0  0
   20.8164   20.0992   25.9459 O   0  5  0  0  0  0  0  0  0  0  0  0
   19.9242   18.2228   26.4661 O   0  0  0  0  0  0  0  0  0  0  0  0
   20.0049   18.7717   24.1765 C   0  0  0  0  0  0  0  0  0  0  0  0
   20.0500   17.6871   24.0215 H   0  0  0  0  0  0  0  0  0  0  0  0
   20.8191   19.2227   23.5983 H   0  0  0  0  0  0  0  0  0  0  0  0
   18.6372   19.3248   23.7023 C   0  0  0  0  0  0  0  0  0  0  0  0
   17.8558   18.9638   24.3853 H   0  0  0  0  0  0  0  0  0  0  0  0
   18.6403   20.4200   23.7904 H   0  0  0  0  0  0  0  0  0  0  0  0
   18.2513   18.9211   22.2571 C   0  0  0  0  0  0  0  0  0  0  0  0
   17.2509   19.3282   22.0562 H   0  0  0  0  0  0  0  0  0  0  0  0
   18.1490   17.8296   22.1846 H   0  0  0  0  0  0  0  0  0  0  0  0
   19.2141   19.4447   21.1614 C   0  0  0  0  0  0  0  0  0  0  0  0
   18.6215   19.7093   20.2749 H   0  0  0  0  0  0  0  0  0  0  0  0
   19.6960   20.3739   21.4950 H   0  0  0  0  0  0  0  0  0  0  0  0
   20.2794   18.4083   20.7351 C   0  0  0  0  0  0  0  0  0  0  0  0
   19.7820   17.5073   20.3503 H   0  0  0  0  0  0  0  0  0  0  0  0
   20.8778   18.0920   21.5977 H   0  0  0  0  0  0  0  0  0  0  0  0
   21.2164   18.9747   19.6495 C   0  0  0  0  0  0  0  0  0  0  0  0
   20.6511   19.2639   18.7539 H   0  0  0  0  0  0  0  0  0  0  0  0
   21.9619   18.2256   19.3526 H   0  0  0  0  0  0  0  0  0  0  0  0
   21.7527   19.8594   20.0171 H   0  0  0  0  0  0  0  0  0  0  0  0
  1  2  1  0  0  0  0
  1  3  2  0  0  0  0
  1  4  1  0  0  0  0
  4  5  1  0  0  0  0
  4  6  1  0  0  0  0
  4  7  1  0  0  0  0
  7  8  1  0  0  0  0
  7  9  1  0  0  0  0
  7 10  1  0  0  0  0
 10 11  1  0  0  0  0
 10 12  1  0  0  0  0
 10 13  1  0  0  0  0
 13 14  1  0  0  0  0
 13 15  1  0  0  0  0
 13 16  1  0  0  0  0
 16 17  1  0  0  0  0
 16 18  1  0  0  0  0
 16 19  1  0  0  0  0
 19 20  1  0  0  0  0
 19 21  1  0  0  0  0
 19 22  1  0  0  0  0
M  END
> <VConfSearch Rank>
12

> <Conf_Id>
5

> <Delta U+W>
2.167

> <U+W>
-50.993

> <U>
10.045

> <W>
-61.037

> <W(PB)>
-63.303

> <W(SA)>
2.266

> <Valence>
10.100

> <Coulomb>
-0.883

> <VdW>
0.828

> <VdW6>
-8.177

> <VdW12>
9.005

> <Bond>
0.182

> <Angle>
2.988

> <Pdih>
6.930

> <Idih>
0.001

> <Tether>
0.000

$$$$
VeraChem MOL file


 22 21  0  0  0  0  0  0  0  0999 V2000     
   19.6568   19.5112   25.6314 C   0  0  0  0  0  0  0  0  0  0  0  0
   20.4910   20.3406   25.9360 O   0  5  0  0  0  0  0  0  0  0  0  0
   18.9340   18.9573   26.4360 O   0  0  0  0  0  0  0  0  0  0  0  0
   19.5252   19.1276   24.1619 C   0  0  0  0  0  0  0  0  0  0  0  0
   19.7436   20.0207   23.5657 H   0  0  0  0  0  0  0  0  0  0  0  0
   18.4809   18.8513   23.9738 H   0  0  0  0  0  0  0  0  0  0  0  0
   20.4683   17.9664   23.7579 C   0  0  0  0  0  0  0  0  0  0  0  0
   21.5115   18.2901   23.8775 H   0  0  0  0  0  0  0  0  0  0  0  0
   20.3225   17.1340   24.4602 H   0  0  0  0  0  0  0  0  0  0  0  0
   20.2504   17.4380   22.3177 C   0  0  0  0  0  0  0  0  0  0  0  0
   19.2389   17.0210   22.2177 H   0  0  0  0  0  0  0  0  0  0  0  0
   20.9371   16.5936   22.1681 H   0  0  0  0  0  0  0  0  0  0  0  0
   20.5156   18.4792   21.2009 C   0  0  0  0  0  0  0  0  0  0  0  0
   21.2519   19.2196   21.5422 H   0  0  0  0  0  0  0  0  0  0  0  0
   20.9747   17.9635   20.3463 H   0  0  0  0  0  0  0  0  0  0  0  0
   19.2328   19.1847   20.7033 C   0  0  0  0  0  0  0  0  0  0  0  0
   18.7235   19.6902   21.5324 H   0  0  0  0  0  0  0  0  0  0  0  0
   18.5299   18.4361   20.3124 H   0  0  0  0  0  0  0  0  0  0  0  0
   19.5460   20.2139   19.5988 C   0  0  0  0  0  0  0  0  0  0  0  0
   20.2225   20.9946   19.9706 H   0  0  0  0  0  0  0  0  0  0  0  0
   18.6254   20.7006   19.2513 H   0  0  0  0  0  0  0  0  0  0  0  0
   20.0211   19.7312   18.7348 H   0  0  0  0  0  0  0  0  0  0  0  0
  1  2  1  0  0  0  0
  1  3  2  0  0  0  0
  1  4  1  0  0  0  0
  4  5  1  0  0  0  0
  4  6  1  0  0  0  0
  4  7  1  0  0  0  0
  7  8  1  0  0  0  0
  7  9  1  0  0  0  0
  7 10  1  0  0  0  0
 10 11  1  0  0  0  0
 10 12  1  0  0  0  0
 10 13  1  0  0  0  0
 13 14  1  0  0  0  0
 13 15  1  0  0  0  0
 13 16  1  0  0  0  0
 16 17  1  0  0  0  0
 16 18  1  0  0  0  0
 16 19  1  0  0  0  0
 19 20  1  0  0  0  0
 19 21  1  0  0  0  0
 19 22  1  0  0  0  0
M  END
> <VConfSearch Rank>
13

> <Conf_Id>
6

> <Delta U+W>
2.118

> <U+W>
-51.042

> <U>
10.045

> <W>
-61.086

> <W(PB)>
-63.356

> <W(SA)>
2.270

> <Valence>
10.100

> <Coulomb>
-0.883

> <VdW>
0.828

> <VdW6>
-8.177

> <VdW12>
9.004

> <Bond>
0.182

> <Angle>
2.988

> <Pdih>
6.930

> <Idih>
0.001

> <Tether>
0.000

$$$$
VeraChem MOL file


 22 21  0  0  0  0  0  0  0  0999 V2000     
   20.2952   19.0515   25.2318 C   0  0  0  0  0  0  0  0  0  0  0  0
   20.5720   20.2072   25.4870 O   0  5  0  0  0  0  0  0  0  0  0  0
   21.1185   18.1584   25.1915 O   0  0  0  0  0  0  0  0  0  0  0  0
   18.8269   18.6872   25.0200 C   0  0  0  0  0  0  0  0  0  0  0  0
   18.3175   18.8978   25.9675 H   0  0  0  0  0  0  0  0  0  0  0  0
   18.7479   17.6059   24.8549 H   0  0  0  0  0  0  0  0  0  0  0  0
   18.1094   19.4601   23.8776 C   0  0  0  0  0  0  0  0  0  0  0  0
   17.0272   19.4001   24.0557 H   0  0  0  0  0  0  0  0  0  0  0  0
   18.3652   20.5275   23.9292 H   0  0  0  0  0  0  0  0  0  0  0  0
   18.3836   18.9164   22.4535 C   0  0  0  0  0  0  0  0  0  0  0  0
   17.7112   19.4330   21.7551 H   0  0  0  0  0  0  0  0  0  0  0  0
   18.1180   17.8514   22.4069 H   0  0  0  0  0  0  0  0  0  0  0  0
   19.8403   19.1098   21.9747 C   0  0  0  0  0  0  0  0  0  0  0  0
   20.1398   20.1571   22.1178 H   0  0  0  0  0  0  0  0  0  0  0  0
   20.5173   18.4960   22.5821 H   0  0  0  0  0  0  0  0  0  0  0  0
   20.0092   18.7217   20.4905 C   0  0  0  0  0  0  0  0  0  0  0  0
   19.3430   19.3351   19.8681 H   0  0  0  0  0  0  0  0  0  0  0  0
   19.7083   17.6749   20.3455 H   0  0  0  0  0  0  0  0  0  0  0  0
   21.4650   18.9067   20.0174 C   0  0  0  0  0  0  0  0  0  0  0  0
   21.7819   19.9526   20.1226 H   0  0  0  0  0  0  0  0  0  0  0  0
   21.5676   18.6256   18.9613 H   0  0  0  0  0  0  0  0  0  0  0  0
   22.1505   18.2805   20.6035 H   0  0  0  0  0  0  0  0  0  0  0  0
  1  2  1  0  0  0  0
  1  3  2  0  0  0  0
  1  4  1  0  0  0  0
  4  5  1  0  0  0  0
  4  6  1  0  0  0  0
  4  7  1  0  0  0  0
  7  8  1  0  0  0  0
  7  9  1  0  0  0  0
  7 10  1  0  0  0  0
 10 11  1  0  0  0  0
 10 12  1  0  0  0  0
 10 13  1  0  0  0  0
 13 14  1  0  0  0  0
 13 15  1  0  0  0  0
 13 16  1  0  0  0  0
 16 17  1  0  0  0  0
 16 18  1  0  0  0  0
 16 19  1  0  0  0  0
 19 20  1  0  0  0  0
 19 21  1  0  0  0  0
 19 22  1  0  0  0  0
M  END
> <VConfSearch Rank>
14

> <Conf_Id>
8

> <Delta U+W>
1.886

> <U+W>
-51.274

> <U>
11.237

> <W>
-62.510

> <W(PB)>
-64.777

> <W(SA)>
2.267

> <Valence>
9.029

> <Coulomb>
1.667

> <VdW>
0.540

> <VdW6>
-8.825

> <VdW12>
9.365

> <Bond>
0.186

> <Angle>
3.195

> <Pdih>
5.642

> <Idih>
0.007

> <Tether>
0.000

$$$$
VeraChem MOL file


 22 21  0  0  0  0  0  0  0  0999 V2000     
   20.0398   19.2421   25.5064 C   0  0  0  0  0  0  0  0  0  0  0  0
   20.7882   20.1807   25.3176 O   0  5  0  0  0  0  0  0  0  0  0  0
   20.2812   18.3348   26.2783 O   0  0  0  0  0  0  0  0  0  0  0  0
   18.7105   19.2142   24.7570 C   0  0  0  0  0  0  0  0  0  0  0  0
   18.5238   20.2082   24.3354 H   0  0  0  0  0  0  0  0  0  0  0  0
   17.9225   19.0404   25.4990 H   0  0  0  0  0  0  0  0  0  0  0  0
   18.6254   18.1236   23.6540 C   0  0  0  0  0  0  0  0  0  0  0  0
   18.7380   17.1379   24.1263 H   0  0  0  0  0  0  0  0  0  0  0  0
   17.6212   18.1382   23.2095 H   0  0  0  0  0  0  0  0  0  0  0  0
   19.6823   18.2592   22.5301 C   0  0  0  0  0  0  0  0  0  0  0  0
   19.5862   17.3891   21.8686 H   0  0  0  0  0  0  0  0  0  0  0  0
   20.6914   18.2100   22.9618 H   0  0  0  0  0  0  0  0  0  0  0  0
   19.5357   19.5577   21.6995 C   0  0  0  0  0  0  0  0  0  0  0  0
   18.5216   19.6203   21.2823 H   0  0  0  0  0  0  0  0  0  0  0  0
   19.6576   20.4259   22.3601 H   0  0  0  0  0  0  0  0  0  0  0  0
   20.5735   19.6778   20.5591 C   0  0  0  0  0  0  0  0  0  0  0  0
   21.5888   19.5999   20.9722 H   0  0  0  0  0  0  0  0  0  0  0  0
   20.4950   20.6806   20.1172 H   0  0  0  0  0  0  0  0  0  0  0  0
   20.3833   18.6288   19.4418 C   0  0  0  0  0  0  0  0  0  0  0  0
   20.5728   17.6124   19.8083 H   0  0  0  0  0  0  0  0  0  0  0  0
   21.0806   18.8184   18.6155 H   0  0  0  0  0  0  0  0  0  0  0  0
   19.3632   18.6655   19.0380 H   0  0  0  0  0  0  0  0  0  0  0  0
  1  2  1  0  0  0  0
  1  3  2  0  0  0  0
  1  4  1  0  0  0  0
  4  5  1  0  0  0  0
  4  6  1  0  0  0  0
  4  7  1  0  0  0  0
  7  8  1  0  0  0  0
  7  9  1  0  0  0  0
  7 10  1  0  0  0  0
 10 11  1  0  0  0  0
 10 12  1  0  0  0  0
 10 13  1  0  0  0  0
 13 14  1  0  0  0  0
 13 15  1  0  0  0  0
 13 16  1  0  0  0  0
 16 17  1  0  0  0  0
 16 18  1  0  0  0  0
 16 19  1  0  0  0  0
 19 20  1  0  0  0  0
 19 21  1  0  0  0  0
 19 22  1  0  0  0  0
M  END
> <VConfSearch Rank>
15

> <Conf_Id>
93

> <Delta U+W>
1.836

> <U+W>
-51.323

> <U>
10.427

> <W>
-61.751

> <W(PB)>
-63.980

> <W(SA)>
2.230

> <Valence>
8.446

> <Coulomb>
1.306

> <VdW>
0.676

> <VdW6>
-8.928

> <VdW12>
9.604

> <Bond>
0.209

> <Angle>
3.066

> <Pdih>
5.170

> <Idih>
0.001

> <Tether>
0.000

$$$$
VeraChem MOL file


 22 21  0  0  0  0  0  0  0  0999 V2000     
   19.9789   18.8761   25.5165 C   0  0  0  0  0  0  0  0  0  0  0  0
   20.6156   19.6274   26.2288 O   0  5  0  0  0  0  0  0  0  0  0  0
   20.2305   17.6938   25.3921 O   0  0  0  0  0  0  0  0  0  0  0  0
   18.7803   19.4444   24.7617 C   0  0  0  0  0  0  0  0  0  0  0  0
   18.1691   19.9930   25.4877 H   0  0  0  0  0  0  0  0  0  0  0  0
   18.1631   18.6123   24.4047 H   0  0  0  0  0  0  0  0  0  0  0  0
   19.1580   20.3917   23.5899 C   0  0  0  0  0  0  0  0  0  0  0  0
   18.2398   20.7962   23.1431 H   0  0  0  0  0  0  0  0  0  0  0  0
   19.7062   21.2523   23.9976 H   0  0  0  0  0  0  0  0  0  0  0  0
   20.0179   19.7353   22.4814 C   0  0  0  0  0  0  0  0  0  0  0  0
   20.9554   19.3590   22.9131 H   0  0  0  0  0  0  0  0  0  0  0  0
   20.2992   20.5167   21.7643 H   0  0  0  0  0  0  0  0  0  0  0  0
   19.2921   18.5882   21.7365 C   0  0  0  0  0  0  0  0  0  0  0  0
   19.0347   17.7971   22.4526 H   0  0  0  0  0  0  0  0  0  0  0  0
   18.3444   18.9556   21.3201 H   0  0  0  0  0  0  0  0  0  0  0  0
   20.1412   17.9532   20.6105 C   0  0  0  0  0  0  0  0  0  0  0  0
   19.6169   17.0639   20.2346 H   0  0  0  0  0  0  0  0  0  0  0  0
   21.0966   17.5989   21.0217 H   0  0  0  0  0  0  0  0  0  0  0  0
   20.4055   18.9088   19.4265 C   0  0  0  0  0  0  0  0  0  0  0  0
   21.0333   19.7568   19.7267 H   0  0  0  0  0  0  0  0  0  0  0  0
   19.4641   19.3027   19.0219 H   0  0  0  0  0  0  0  0  0  0  0  0
   20.9264   18.3812   18.6171 H   0  0  0  0  0  0  0  0  0  0  0  0
  1  2  1  0  0  0  0
  1  3  2  0  0  0  0
  1  4  1  0  0  0  0
  4  5  1  0  0  0  0
  4  6  1  0  0  0  0
  4  7  1  0  0  0  0
  7  8  1  0  0  0  0
  7  9  1  0  0  0  0
  7 10  1  0  0  0  0
 10 11  1  0  0  0  0
 10 12  1  0  0  0  0
 10 13  1  0  0  0  0
 13 14  1  0  0  0  0
 13 15  1  0  0  0  0
 13 16  1  0  0  0  0
 16 17  1  0  0  0  0
 16 18  1  0  0  0  0
 16 19  1  0  0  0  0
 19 20  1  0  0  0  0
 19 21  1  0  0  0  0
 19 22  1  0  0  0  0
M  END
> <VConfSearch Rank>
16

> <Conf_Id>
70

> <Delta U+W>
1.803

> <U+W>
-51.356

> <U>
10.428

> <W>
-61.784

> <W(PB)>
-64.014

> <W(SA)>
2.230

> <Valence>
8.445

> <Coulomb>
1.306

> <VdW>
0.676

> <VdW6>
-8.929

> <VdW12>
9.605

> <Bond>
0.209

> <Angle>
3.066

> <Pdih>
5.170

> <Idih>
0.001

> <Tether>
0.000

$$$$
VeraChem MOL file


 22 21  0  0  0  0  0  0  0  0999 V2000     
   20.0399   19.1472   25.6942 C   0  0  0  0  0  0  0  0  0  0  0  0
   20.7661   20.1053   25.8724 O   0  5  0  0  0  0  0  0  0  0  0  0
   20.2929   18.0282   26.0950 O   0  0  0  0  0  0  0  0  0  0  0  0
   18.7293   19.3680   24.9442 C   0  0  0  0  0  0  0  0  0  0  0  0
   18.2680   20.2764   25.3494 H   0  0  0  0  0  0  0  0  0  0  0  0
   18.0503   18.5379   25.1739 H   0  0  0  0  0  0  0  0  0  0  0  0
   18.8989   19.5135   23.4096 C   0  0  0  0  0  0  0  0  0  0  0  0
   17.9337   19.7980   22.9694 H   0  0  0  0  0  0  0  0  0  0  0  0
   19.5964   20.3366   23.2055 H   0  0  0  0  0  0  0  0  0  0  0  0
   19.3999   18.2098   22.7433 C   0  0  0  0  0  0  0  0  0  0  0  0
   18.7363   17.3834   23.0325 H   0  0  0  0  0  0  0  0  0  0  0  0
   20.3973   17.9540   23.1269 H   0  0  0  0  0  0  0  0  0  0  0  0
   19.4457   18.2856   21.1987 C   0  0  0  0  0  0  0  0  0  0  0  0
   19.6908   17.2882   20.8087 H   0  0  0  0  0  0  0  0  0  0  0  0
   18.4477   18.5335   20.8123 H   0  0  0  0  0  0  0  0  0  0  0  0
   20.4795   19.3015   20.6627 C   0  0  0  0  0  0  0  0  0  0  0  0
   21.4679   19.0853   21.0911 H   0  0  0  0  0  0  0  0  0  0  0  0
   20.2092   20.3181   20.9774 H   0  0  0  0  0  0  0  0  0  0  0  0
   20.5679   19.2598   19.1238 C   0  0  0  0  0  0  0  0  0  0  0  0
   20.8744   18.2652   18.7743 H   0  0  0  0  0  0  0  0  0  0  0  0
   21.3033   19.9885   18.7588 H   0  0  0  0  0  0  0  0  0  0  0  0
   19.5981   19.4996   18.6684 H   0  0  0  0  0  0  0  0  0  0  0  0
  1  2  1  0  0  0  0
  1  3  2  0  0  0  0
  1  4  1  0  0  0  0
  4  5  1  0  0  0  0
  4  6  1  0  0  0  0
  4  7  1  0  0  0  0
  7  8  1  0  0  0  0
  7  9  1  0  0  0  0
  7 10  1  0  0  0  0
 10 11  1  0  0  0  0
 10 12  1  0  0  0  0
 10 13  1  0  0  0  0
 13 14  1  0  0  0  0
 13 15  1  0  0  0  0
 13 16  1  0  0  0  0
 16 17  1  0  0  0  0
 16 18  1  0  0  0  0
 16 19  1  0  0  0  0
 19 20  1  0  0  0  0
 19 21  1  0  0  0  0
 19 22  1  0  0  0  0
M  END
> <VConfSearch Rank>
17

> <Conf_Id>
85

> <Delta U+W>
0.707

> <U+W>
-52.452

> <U>
8.925

> <W>
-61.378

> <W(PB)>
-63.661

> <W(SA)>
2.283

> <Valence>
7.881

> <Coulomb>
0.349

> <VdW>
0.695

> <VdW6>
-8.049

> <VdW12>
8.743

> <Bond>
0.156

> <Angle>
2.660

> <Pdih>
5.064

> <Idih>
0.001

> <Tether>
0.000

$$$$
VeraChem MOL file


 22 21  0  0  0  0  0  0  0  0999 V2000     
   19.7509   19.0546   25.7114 C   0  0  0  0  0  0  0  0  0  0  0  0
   20.6810   19.6847   26.1749 O   0  5  0  0  0  0  0  0  0  0  0  0
   18.5942   19.2202   26.0453 O   0  0  0  0  0  0  0  0  0  0  0  0
   20.0523   17.9803   24.6701 C   0  0  0  0  0  0  0  0  0  0  0  0
   19.4891   17.0834   24.9537 H   0  0  0  0  0  0  0  0  0  0  0  0
   21.1159   17.7199   24.7321 H   0  0  0  0  0  0  0  0  0  0  0  0
   19.6838   18.3845   23.2187 C   0  0  0  0  0  0  0  0  0  0  0  0
   19.7882   17.5007   22.5769 H   0  0  0  0  0  0  0  0  0  0  0  0
   18.6284   18.6877   23.1810 H   0  0  0  0  0  0  0  0  0  0  0  0
   20.5780   19.5215   22.6723 C   0  0  0  0  0  0  0  0  0  0  0  0
   21.6210   19.1787   22.6335 H   0  0  0  0  0  0  0  0  0  0  0  0
   20.5589   20.3652   23.3757 H   0  0  0  0  0  0  0  0  0  0  0  0
   20.1564   20.0482   21.2776 C   0  0  0  0  0  0  0  0  0  0  0  0
   19.1470   20.4789   21.3273 H   0  0  0  0  0  0  0  0  0  0  0  0
   20.8243   20.8829   21.0246 H   0  0  0  0  0  0  0  0  0  0  0  0
   20.2385   19.0031   20.1369 C   0  0  0  0  0  0  0  0  0  0  0  0
   21.0030   18.2479   20.3661 H   0  0  0  0  0  0  0  0  0  0  0  0
   20.5742   19.5088   19.2210 H   0  0  0  0  0  0  0  0  0  0  0  0
   18.8848   18.3218   19.8366 C   0  0  0  0  0  0  0  0  0  0  0  0
   18.4966   17.7827   20.7081 H   0  0  0  0  0  0  0  0  0  0  0  0
   18.9919   17.6002   19.0165 H   0  0  0  0  0  0  0  0  0  0  0  0
   18.1334   19.0632   19.5352 H   0  0  0  0  0  0  0  0  0  0  0  0
  1  2  1  0  0  0  0
  1  3  2  0  0  0  0
  1  4  1  0  0  0  0
  4  5  1  0  0  0  0
  4  6  1  0  0  0  0
  4  7  1  0  0  0  0
  7  8  1  0  0  0  0
  7  9  1  0  0  0  0
  7 10  1  0  0  0  0
 10 11  1  0  0  0  0
 10 12  1  0  0  0  0
 10 13  1  0  0  0  0
 13 14  1  0  0  0  0
 13 15  1  0  0  0  0
 13 16  1  0  0  0  0
 16 17  1  0  0  0  0
 16 18  1  0  0  0  0
 16 19  1  0  0  0  0
 19 20  1  0  0  0  0
 19 21  1  0  0  0  0
 19 22  1  0  0  0  0
M  END
> <VConfSearch Rank>
18

> <Conf_Id>
82

> <Delta U+W>
3.438

> <U+W>
-49.721

> <U>
11.773

> <W>
-61.495

> <W(PB)>
-63.749

> <W(SA)>
2.254

> <Valence>
10.419

> <Coulomb>
0.565

> <VdW>
0.789

> <VdW6>
-8.847

> <VdW12>
9.636

> <Bond>
0.200

> <Angle>
3.187

> <Pdih>
7.032

> <Idih>
0.001

> <Tether>
0.000

$$$$
VeraChem MOL file


 22 21  0  0  0  0  0  0  0  0999 V2000     
   19.9457   19.1614   25.7076 C   0  0  0  0  0  0  0  0  0  0  0  0
   20.5515   20.1713   26.0076 O   0  5  0  0  0  0  0  0  0  0  0  0
   18.8838   18.8420   26.2047 O   0  0  0  0  0  0  0  0  0  0  0  0
   20.5655   18.2333   24.6664 C   0  0  0  0  0  0  0  0  0  0  0  0
   20.1021   17.2435   24.7584 H   0  0  0  0  0  0  0  0  0  0  0  0
   21.6242   18.1133   24.9248 H   0  0  0  0  0  0  0  0  0  0  0  0
   20.4445   18.7476   23.2081 C   0  0  0  0  0  0  0  0  0  0  0  0
   20.8700   19.7584   23.1410 H   0  0  0  0  0  0  0  0  0  0  0  0
   21.0500   18.0996   22.5620 H   0  0  0  0  0  0  0  0  0  0  0  0
   18.9844   18.7562   22.6993 C   0  0  0  0  0  0  0  0  0  0  0  0
   18.3582   19.3138   23.4092 H   0  0  0  0  0  0  0  0  0  0  0  0
   18.5955   17.7289   22.6891 H   0  0  0  0  0  0  0  0  0  0  0  0
   18.8030   19.3898   21.2971 C   0  0  0  0  0  0  0  0  0  0  0  0
   17.7277   19.3898   21.0720 H   0  0  0  0  0  0  0  0  0  0  0  0
   19.1026   20.4465   21.3199 H   0  0  0  0  0  0  0  0  0  0  0  0
   19.5349   18.6489   20.1503 C   0  0  0  0  0  0  0  0  0  0  0  0
   18.9069   18.6888   19.2495 H   0  0  0  0  0  0  0  0  0  0  0  0
   19.6487   17.5840   20.3958 H   0  0  0  0  0  0  0  0  0  0  0  0
   20.9068   19.2686   19.8029 C   0  0  0  0  0  0  0  0  0  0  0  0
   20.7937   20.3133   19.4854 H   0  0  0  0  0  0  0  0  0  0  0  0
   21.3798   18.7172   18.9800 H   0  0  0  0  0  0  0  0  0  0  0  0
   21.5926   19.2478   20.6574 H   0  0  0  0  0  0  0  0  0  0  0  0
  1  2  1  0  0  0  0
  1  3  2  0  0  0  0
  1  4  1  0  0  0  0
  4  5  1  0  0  0  0
  4  6  1  0  0  0  0
  4  7  1  0  0  0  0
  7  8  1  0  0  0  0
  7  9  1  0  0  0  0
  7 10  1  0  0  0  0
 10 11  1  0  0  0  0
 10 12  1  0  0  0  0
 10 13  1  0  0  0  0
 13 14  1  0  0  0  0
 13 15  1  0  0  0  0
 13 16  1  0  0  0  0
 16 17  1  0  0  0  0
 16 18  1  0  0  0  0
 16 19  1  0  0  0  0
 19 20  1  0  0  0  0
 19 21  1  0  0  0  0
 19 22  1  0  0  0  0
M  END
> <VConfSearch Rank>
19

> <Conf_Id>
94

> <Delta U+W>
3.471

> <U+W>
-49.688

> <U>
11.773

> <W>
-61.461

> <W(PB)>
-63.710

> <W(SA)>
2.248

> <Valence>
10.419

> <Coulomb>
0.566

> <VdW>
0.789

> <VdW6>
-8.847

> <VdW12>
9.636

> <Bond>
0.200

> <Angle>
3.187

> <Pdih>
7.032

> <Idih>
0.001

> <Tether>
0.000

$$$$
VeraChem MOL file


 22 21  0  0  0  0  0  0  0  0999 V2000     
   19.8692   18.8551   25.6821 C   0  0  0  0  0  0  0  0  0  0  0  0
   20.0200   19.6879   26.5541 O   0  5  0  0  0  0  0  0  0  0  0  0
   20.1883   17.6889   25.8035 O   0  0  0  0  0  0  0  0  0  0  0  0
   19.2639   19.3025   24.3565 C   0  0  0  0  0  0  0  0  0  0  0  0
   18.5517   20.1104   24.5621 H   0  0  0  0  0  0  0  0  0  0  0  0
   18.6928   18.4604   23.9492 H   0  0  0  0  0  0  0  0  0  0  0  0
   20.3328   19.7778   23.3387 C   0  0  0  0  0  0  0  0  0  0  0  0
   20.9404   20.5646   23.8065 H   0  0  0  0  0  0  0  0  0  0  0  0
   21.0226   18.9525   23.1177 H   0  0  0  0  0  0  0  0  0  0  0  0
   19.7304   20.3348   22.0244 C   0  0  0  0  0  0  0  0  0  0  0  0
   20.5465   20.6960   21.3848 H   0  0  0  0  0  0  0  0  0  0  0  0
   19.1237   21.2197   22.2598 H   0  0  0  0  0  0  0  0  0  0  0  0
   18.8562   19.3347   21.2227 C   0  0  0  0  0  0  0  0  0  0  0  0
   17.9523   19.0985   21.7993 H   0  0  0  0  0  0  0  0  0  0  0  0
   18.5033   19.8326   20.3094 H   0  0  0  0  0  0  0  0  0  0  0  0
   19.5600   18.0126   20.8292 C   0  0  0  0  0  0  0  0  0  0  0  0
   18.8404   17.3788   20.2932 H   0  0  0  0  0  0  0  0  0  0  0  0
   19.8453   17.4533   21.7302 H   0  0  0  0  0  0  0  0  0  0  0  0
   20.7992   18.2247   19.9330 C   0  0  0  0  0  0  0  0  0  0  0  0
   20.5396   18.7969   19.0329 H   0  0  0  0  0  0  0  0  0  0  0  0
   21.2121   17.2592   19.6134 H   0  0  0  0  0  0  0  0  0  0  0  0
   21.5904   18.7645   20.4683 H   0  0  0  0  0  0  0  0  0  0  0  0
  1  2  1  0  0  0  0
  1  3  2  0  0  0  0
  1  4  1  0  0  0  0
  4  5  1  0  0  0  0
  4  6  1  0  0  0  0
  4  7  1  0  0  0  0
  7  8  1  0  0  0  0
  7  9  1  0  0  0  0
  7 10  1  0  0  0  0
 10 11  1  0  0  0  0
 10 12  1  0  0  0  0
 10 13  1  0  0  0  0
 13 14  1  0  0  0  0
 13 15  1  0  0  0  0
 13 16  1  0  0  0  0
 16 17  1  0  0  0  0
 16 18  1  0  0  0  0
 16 19  1  0  0  0  0
 19 20  1  0  0  0  0
 19 21  1  0  0  0  0
 19 22  1  0  0  0  0
M  END
> <VConfSearch Rank>
20

> <Conf_Id>
56

> <Delta U+W>
0.853

> <U+W>
-52.307

> <U>
8.874

> <W>
-61.181

> <W(PB)>
-63.413

> <W(SA)>
2.232

> <Valence>
8.479

> <Coulomb>
-0.357

> <VdW>
0.753

> <VdW6>
-9.081

> <VdW12>
9.833

> <Bond>
0.221

> <Angle>
3.208

> <Pdih>
5.050

> <Idih>
0.000

> <Tether>
0.000

$$$$
VeraChem MOL file


 22 21  0  0  0  0  0  0  0  0999 V2000     
   22.4570   19.0800   19.0769 C   0  0  0  0  0  0  0  0  0  0  0  0
   23.0757   18.1137   19.4793 O   0  5  0  0  0  0  0  0  0  0  0  0
   22.7534   19.6832   18.0649 O   0  0  0  0  0  0  0  0  0  0  0  0
   21.2436   19.5841   19.8598 C   0  0  0  0  0  0  0  0  0  0  0  0
   20.3857   19.5715   19.1773 H   0  0  0  0  0  0  0  0  0  0  0  0
   21.4333   20.6327   20.1175 H   0  0  0  0  0  0  0  0  0  0  0  0
   20.9037   18.7818   21.1440 C   0  0  0  0  0  0  0  0  0  0  0  0
   20.7208   17.7310   20.8796 H   0  0  0  0  0  0  0  0  0  0  0  0
   21.7693   18.7933   21.8208 H   0  0  0  0  0  0  0  0  0  0  0  0
   19.6685   19.3572   21.8706 C   0  0  0  0  0  0  0  0  0  0  0  0
   18.8045   19.3447   21.1920 H   0  0  0  0  0  0  0  0  0  0  0  0
   19.8536   20.4077   22.1337 H   0  0  0  0  0  0  0  0  0  0  0  0
   19.3322   18.5577   23.1477 C   0  0  0  0  0  0  0  0  0  0  0  0
   19.1471   17.5071   22.8850 H   0  0  0  0  0  0  0  0  0  0  0  0
   20.1960   18.5700   23.8266 H   0  0  0  0  0  0  0  0  0  0  0  0
   18.0980   19.1321   23.8742 C   0  0  0  0  0  0  0  0  0  0  0  0
   17.2313   19.1195   23.1988 H   0  0  0  0  0  0  0  0  0  0  0  0
   18.2802   20.1826   24.1403 H   0  0  0  0  0  0  0  0  0  0  0  0
   17.7655   18.3310   25.1490 C   0  0  0  0  0  0  0  0  0  0  0  0
   17.5477   17.2822   24.9082 H   0  0  0  0  0  0  0  0  0  0  0  0
   16.8860   18.7528   25.6526 H   0  0  0  0  0  0  0  0  0  0  0  0
   18.6045   18.3533   25.8568 H   0  0  0  0  0  0  0  0  0  0  0  0
  1  2  1  0  0  0  0
  1  3  2  0  0  0  0
  1  4  1  0  0  0  0
  4  5  1  0  0  0  0
  4  6  1  0  0  0  0
  4  7  1  0  0  0  0
  7  8  1  0  0  0  0
  7  9  1  0  0  0  0
  7 10  1  0  0  0  0
 10 11  1  0  0  0  0
 10 12  1  0  0  0  0
 10 13  1  0  0  0  0
 13 14  1  0  0  0  0
 13 15  1  0  0  0  0
 13 16  1  0  0  0  0
 16 17  1  0  0  0  0
 16 18  1  0  0  0  0
 16 19  1  0  0  0  0
 19 20  1  0  0  0  0
 19 21  1  0  0  0  0
 19 22  1  0  0  0  0
M  END
> <VConfSearch Rank>
21

> <Conf_Id>
0

> <Delta U+W>
0.000

> <U+W>
-53.159

> <U>
6.763

> <W>
-59.922

> <W(PB)>
-62.256

> <W(SA)>
2.334

> <Valence>
7.600

> <Coulomb>
-2.139

> <VdW>
1.302

> <VdW6>
-6.786

> <VdW12>
8.088

> <Bond>
0.134

> <Angle>
2.720

> <Pdih>
4.746

> <Idih>
0.000

> <Tether>
0.000

$$$$
VeraChem MOL file


 22 21  0  0  0  0  0  0  0  0999 V2000     
   19.3118   17.1041   18.6416 C   0  0  0  0  0  0  0  0  0  0  0  0
   18.1532   16.9792   18.2973 O   0  5  0  0  0  0  0  0  0  0  0  0
   20.1823   16.2978   18.3799 O   0  0  0  0  0  0  0  0  0  0  0  0
   19.6895   18.3290   19.4669 C   0  0  0  0  0  0  0  0  0  0  0  0
   19.0504   19.1625   19.1517 H   0  0  0  0  0  0  0  0  0  0  0  0
   20.7227   18.6011   19.2195 H   0  0  0  0  0  0  0  0  0  0  0  0
   19.5490   18.0943   20.9911 C   0  0  0  0  0  0  0  0  0  0  0  0
   18.5125   17.8101   21.2204 H   0  0  0  0  0  0  0  0  0  0  0  0
   20.1848   17.2487   21.2882 H   0  0  0  0  0  0  0  0  0  0  0  0
   19.9370   19.3483   21.8040 C   0  0  0  0  0  0  0  0  0  0  0  0
   19.3004   20.1920   21.5037 H   0  0  0  0  0  0  0  0  0  0  0  0
   20.9731   19.6304   21.5715 H   0  0  0  0  0  0  0  0  0  0  0  0
   19.7959   19.1114   23.3229 C   0  0  0  0  0  0  0  0  0  0  0  0
   18.7599   18.8293   23.5559 H   0  0  0  0  0  0  0  0  0  0  0  0
   20.4323   18.2678   23.6237 H   0  0  0  0  0  0  0  0  0  0  0  0
   20.1835   20.3643   24.1361 C   0  0  0  0  0  0  0  0  0  0  0  0
   19.5476   21.2099   23.8394 H   0  0  0  0  0  0  0  0  0  0  0  0
   21.2200   20.6485   23.9072 H   0  0  0  0  0  0  0  0  0  0  0  0
   20.0413   20.1236   25.6524 C   0  0  0  0  0  0  0  0  0  0  0  0
   20.6912   19.3025   25.9824 H   0  0  0  0  0  0  0  0  0  0  0  0
   19.0061   19.8680   25.9141 H   0  0  0  0  0  0  0  0  0  0  0  0
   20.3207   21.0240   26.2149 H   0  0  0  0  0  0  0  0  0  0  0  0
  1  2  1  0  0  0  0
  1  3  2  0  0  0  0
  1  4  1  0  0  0  0
  4  5  1  0  0  0  0
  4  6  1  0  0  0  0
  4  7  1  0  0  0  0
  7  8  1  0  0  0  0
  7  9  1  0  0  0  0
  7 10  1  0  0  0  0
 10 11  1  0  0  0  0
 10 12  1  0  0  0  0
 10 13  1  0  0  0  0
 13 14  1  0  0  0  0
 13 15  1  0  0  0  0
 13 16  1  0  0  0  0
 16 17  1  0  0  0  0
 16 18  1  0  0  0  0
 16 19  1  0  0  0  0
 19 20  1  0  0  0  0
 19 21  1  0  0  0  0
 19 22  1  0  0  0  0
M  END
> <VConfSearch Rank>
22

> <Conf_Id>
10

> <Delta U+W>
-1.291

> <U+W>
-54.451

> <U>
5.779

> <W>
-60.230

> <W(PB)>
-62.557

> <W(SA)>
2.328

> <Valence>
7.101

> <Coulomb>
-2.079

> <VdW>
0.757

> <VdW6>
-6.496

> <VdW12>
7.253

> <Bond>
0.100

> <Angle>
2.262

> <Pdih>
4.738

> <Idih>
0.001

> <Tether>
0.000

$$$$
VeraChem MOL file


 22 21  0  0  0  0  0  0  0  0999 V2000     
   19.5442   21.0473   18.9618 C   0  0  0  0  0  0  0  0  0  0  0  0
   20.4628   20.8655   18.1875 O   0  5  0  0  0  0  0  0  0  0  0  0
   18.4322   21.3951   18.6171 O   0  0  0  0  0  0  0  0  0  0  0  0
   19.7951   20.8054   20.4460 C   0  0  0  0  0  0  0  0  0  0  0  0
   19.1662   21.5000   21.0156 H   0  0  0  0  0  0  0  0  0  0  0  0
   20.8393   21.0623   20.6614 H   0  0  0  0  0  0  0  0  0  0  0  0
   19.5043   19.3462   20.8755 C   0  0  0  0  0  0  0  0  0  0  0  0
   18.4592   19.1007   20.6409 H   0  0  0  0  0  0  0  0  0  0  0  0
   20.1325   18.6627   20.2875 H   0  0  0  0  0  0  0  0  0  0  0  0
   19.7659   19.1272   22.3815 C   0  0  0  0  0  0  0  0  0  0  0  0
   19.1352   19.8103   22.9667 H   0  0  0  0  0  0  0  0  0  0  0  0
   20.8098   19.3820   22.6060 H   0  0  0  0  0  0  0  0  0  0  0  0
   19.4777   17.6684   22.8044 C   0  0  0  0  0  0  0  0  0  0  0  0
   18.4524   17.4066   22.5091 H   0  0  0  0  0  0  0  0  0  0  0  0
   20.1427   16.9860   22.2576 H   0  0  0  0  0  0  0  0  0  0  0  0
   19.6271   17.4280   24.3247 C   0  0  0  0  0  0  0  0  0  0  0  0
   19.2927   16.4069   24.5546 H   0  0  0  0  0  0  0  0  0  0  0  0
   18.9586   18.1045   24.8748 H   0  0  0  0  0  0  0  0  0  0  0  0
   21.0750   17.6027   24.8318 C   0  0  0  0  0  0  0  0  0  0  0  0
   21.1443   17.3355   25.8942 H   0  0  0  0  0  0  0  0  0  0  0  0
   21.4134   18.6412   24.7282 H   0  0  0  0  0  0  0  0  0  0  0  0
   21.7669   16.9573   24.2752 H   0  0  0  0  0  0  0  0  0  0  0  0
  1  2  1  0  0  0  0
  1  3  2  0  0  0  0
  1  4  1  0  0  0  0
  4  5  1  0  0  0  0
  4  6  1  0  0  0  0
  4  7  1  0  0  0  0
  7  8  1  0  0  0  0
  7  9  1  0  0  0  0
  7 10  1  0  0  0  0
 10 11  1  0  0  0  0
 10 12  1  0  0  0  0
 10 13  1  0  0  0  0
 13 14  1  0  0  0  0
 13 15  1  0  0  0  0
 13 16  1  0  0  0  0
 16 17  1  0  0  0  0
 16 18  1  0  0  0  0
 16 19  1  0  0  0  0
 19 20  1  0  0  0  0
 19 21  1  0  0  0  0
 19 22  1  0  0  0  0
M  END
> <VConfSearch Rank>
23

> <Conf_Id>
37

> <Delta U+W>
-0.345

> <U+W>
-53.504

> <U>
6.751

> <W>
-60.255

> <W(PB)>
-62.592

> <W(SA)>
2.336

> <Valence>
7.602

> <Coulomb>
-1.744

> <VdW>
0.894

> <VdW6>
-7.110

> <VdW12>
8.004

> <Bond>
0.131

> <Angle>
2.489

> <Pdih>
4.982

> <Idih>
0.001

> <Tether>
0.000

$$$$
VeraChem MOL file


 22 21  0  0  0  0  0  0  0  0999 V2000     
   19.4260   22.6441   20.8963 C   0  0  0  0  0  0  0  0  0  0  0  0
   18.2655   22.9790   20.7643 O   0  5  0  0  0  0  0  0  0  0  0  0
   20.3404   23.1159   20.2500 O   0  0  0  0  0  0  0  0  0  0  0  0
   19.7501   21.5562   21.9140 C   0  0  0  0  0  0  0  0  0  0  0  0
   19.0386   21.6431   22.7440 H   0  0  0  0  0  0  0  0  0  0  0  0
   20.7487   21.7565   22.3207 H   0  0  0  0  0  0  0  0  0  0  0  0
   19.6951   20.1313   21.3099 C   0  0  0  0  0  0  0  0  0  0  0  0
   18.6932   19.9509   20.8962 H   0  0  0  0  0  0  0  0  0  0  0  0
   20.4030   20.0652   20.4721 H   0  0  0  0  0  0  0  0  0  0  0  0
   20.0269   19.0486   22.3597 C   0  0  0  0  0  0  0  0  0  0  0  0
   19.3189   19.1283   23.1949 H   0  0  0  0  0  0  0  0  0  0  0  0
   21.0298   19.2302   22.7698 H   0  0  0  0  0  0  0  0  0  0  0  0
   19.9669   17.6280   21.7527 C   0  0  0  0  0  0  0  0  0  0  0  0
   18.9511   17.4241   21.3872 H   0  0  0  0  0  0  0  0  0  0  0  0
   20.6273   17.5857   20.8758 H   0  0  0  0  0  0  0  0  0  0  0  0
   20.3928   16.5183   22.7419 C   0  0  0  0  0  0  0  0  0  0  0  0
   21.4111   16.7154   23.1047 H   0  0  0  0  0  0  0  0  0  0  0  0
   20.4356   15.5623   22.2019 H   0  0  0  0  0  0  0  0  0  0  0  0
   19.4335   16.3682   23.9424 C   0  0  0  0  0  0  0  0  0  0  0  0
   18.4030   16.2002   23.6034 H   0  0  0  0  0  0  0  0  0  0  0  0
   19.4456   17.2616   24.5792 H   0  0  0  0  0  0  0  0  0  0  0  0
   19.7282   15.5132   24.5645 H   0  0  0  0  0  0  0  0  0  0  0  0
  1  2  1  0  0  0  0
  1  3  2  0  0  0  0
  1  4  1  0  0  0  0
  4  5  1  0  0  0  0
  4  6  1  0  0  0  0
  4  7  1  0  0  0  0
  7  8  1  0  0  0  0
  7  9  1  0  0  0  0
  7 10  1  0  0  0  0
 10 11  1  0  0  0  0
 10 12  1  0  0  0  0
 10 13  1  0  0  0  0
 13 14  1  0  0  0  0
 13 15  1  0  0  0  0
 13 16  1  0  0  0  0
 16 17  1  0  0  0  0
 16 18  1  0  0  0  0
 16 19  1  0  0  0  0
 19 20  1  0  0  0  0
 19 21  1  0  0  0  0
 19 22  1  0  0  0  0
M  END
> <VConfSearch Rank>
24

> <Conf_Id>
38

> <Delta U+W>
-0.439

> <U+W>
-53.598

> <U>
6.751

> <W>
-60.350

> <W(PB)>
-62.659

> <W(SA)>
2.309

> <Valence>
7.602

> <Coulomb>
-1.744

> <VdW>
0.893

> <VdW6>
-7.110

> <VdW12>
8.004

> <Bond>
0.131

> <Angle>
2.489

> <Pdih>
4.981

> <Idih>
0.001

> <Tether>
0.000

$$$$
VeraChem MOL file


 22 21  0  0  0  0  0  0  0  0999 V2000     
   22.7154   19.5114   19.8057 C   0  0  0  0  0  0  0  0  0  0  0  0
   22.8982   18.8113   18.8295 O   0  5  0  0  0  0  0  0  0  0  0  0
   23.5819   20.1934   20.3162 O   0  0  0  0  0  0  0  0  0  0  0  0
   21.3283   19.5168   20.4382 C   0  0  0  0  0  0  0  0  0  0  0  0
   20.5908   19.3623   19.6416 H   0  0  0  0  0  0  0  0  0  0  0  0
   21.1558   20.5164   20.8524 H   0  0  0  0  0  0  0  0  0  0  0  0
   21.1656   18.4328   21.5356 C   0  0  0  0  0  0  0  0  0  0  0  0
   21.4408   17.4581   21.1094 H   0  0  0  0  0  0  0  0  0  0  0  0
   21.8760   18.6259   22.3513 H   0  0  0  0  0  0  0  0  0  0  0  0
   19.7297   18.3356   22.1043 C   0  0  0  0  0  0  0  0  0  0  0  0
   19.6833   17.4569   22.7602 H   0  0  0  0  0  0  0  0  0  0  0  0
   19.0212   18.1510   21.2854 H   0  0  0  0  0  0  0  0  0  0  0  0
   19.2956   19.5927   22.8976 C   0  0  0  0  0  0  0  0  0  0  0  0
   20.0052   19.7782   23.7154 H   0  0  0  0  0  0  0  0  0  0  0  0
   19.3386   20.4716   22.2422 H   0  0  0  0  0  0  0  0  0  0  0  0
   17.8621   19.4931   23.4696 C   0  0  0  0  0  0  0  0  0  0  0  0
   17.1505   19.2961   22.6559 H   0  0  0  0  0  0  0  0  0  0  0  0
   17.5850   20.4679   23.8943 H   0  0  0  0  0  0  0  0  0  0  0  0
   17.7112   18.4155   24.5653 C   0  0  0  0  0  0  0  0  0  0  0  0
   17.8593   17.4069   24.1601 H   0  0  0  0  0  0  0  0  0  0  0  0
   16.7053   18.4522   25.0031 H   0  0  0  0  0  0  0  0  0  0  0  0
   18.4372   18.5727   25.3737 H   0  0  0  0  0  0  0  0  0  0  0  0
  1  2  1  0  0  0  0
  1  3  2  0  0  0  0
  1  4  1  0  0  0  0
  4  5  1  0  0  0  0
  4  6  1  0  0  0  0
  4  7  1  0  0  0  0
  7  8  1  0  0  0  0
  7  9  1  0  0  0  0
  7 10  1  0  0  0  0
 10 11  1  0  0  0  0
 10 12  1  0  0  0  0
 10 13  1  0  0  0  0
 13 14  1  0  0  0  0
 13 15  1  0  0  0  0
 13 16  1  0  0  0  0
 16 17  1  0  0  0  0
 16 18  1  0  0  0  0
 16 19  1  0  0  0  0
 19 20  1  0  0  0  0
 19 21  1  0  0  0  0
 19 22  1  0  0  0  0
M  END
> <VConfSearch Rank>
25

> <Conf_Id>
60

> <Delta U+W>
0.386

> <U+W>
-52.773

> <U>
7.689

> <W>
-60.463

> <W(PB)>
-62.772

> <W(SA)>
2.309

> <Valence>
8.197

> <Coulomb>
-1.561

> <VdW>
1.053

> <VdW6>
-7.737

> <VdW12>
8.790

> <Bond>
0.181

> <Angle>
2.780

> <Pdih>
5.235

> <Idih>
0.001

> <Tether>
0.000

$$$$
VeraChem MOL file


 22 21  0  0  0  0  0  0  0  0999 V2000     
   16.7811   18.9108   20.0414 C   0  0  0  0  0  0  0  0  0  0  0  0
   15.7871   19.0931   20.7160 O   0  5  0  0  0  0  0  0  0  0  0  0
   16.7572   18.4385   18.9220 O   0  0  0  0  0  0  0  0  0  0  0  0
   18.1351   19.2735   20.6410 C   0  0  0  0  0  0  0  0  0  0  0  0
   17.9883   20.1424   21.2921 H   0  0  0  0  0  0  0  0  0  0  0  0
   18.7959   19.5866   19.8238 H   0  0  0  0  0  0  0  0  0  0  0  0
   18.7760   18.1005   21.4277 C   0  0  0  0  0  0  0  0  0  0  0  0
   18.1290   17.8278   22.2729 H   0  0  0  0  0  0  0  0  0  0  0  0
   18.8172   17.2195   20.7723 H   0  0  0  0  0  0  0  0  0  0  0  0
   20.2049   18.4030   21.9390 C   0  0  0  0  0  0  0  0  0  0  0  0
   20.8469   18.6832   21.0928 H   0  0  0  0  0  0  0  0  0  0  0  0
   20.6211   17.4752   22.3517 H   0  0  0  0  0  0  0  0  0  0  0  0
   20.2501   19.5118   23.0191 C   0  0  0  0  0  0  0  0  0  0  0  0
   19.8371   20.4410   22.6067 H   0  0  0  0  0  0  0  0  0  0  0  0
   19.6066   19.2323   23.8644 H   0  0  0  0  0  0  0  0  0  0  0  0
   21.6779   19.8106   23.5330 C   0  0  0  0  0  0  0  0  0  0  0  0
   21.6384   20.6927   24.1868 H   0  0  0  0  0  0  0  0  0  0  0  0
   22.3277   20.0794   22.6888 H   0  0  0  0  0  0  0  0  0  0  0  0
   22.3050   18.6394   24.3203 C   0  0  0  0  0  0  0  0  0  0  0  0
   21.6552   18.3306   25.1494 H   0  0  0  0  0  0  0  0  0  0  0  0
   23.2734   18.9368   24.7430 H   0  0  0  0  0  0  0  0  0  0  0  0
   22.4786   17.7690   23.6755 H   0  0  0  0  0  0  0  0  0  0  0  0
  1  2  1  0  0  0  0
  1  3  2  0  0  0  0
  1  4  1  0  0  0  0
  4  5  1  0  0  0  0
  4  6  1  0  0  0  0
  4  7  1  0  0  0  0
  7  8  1  0  0  0  0
  7  9  1  0  0  0  0
  7 10  1  0  0  0  0
 10 11  1  0  0  0  0
 10 12  1  0  0  0  0
 10 13  1  0  0  0  0
 13 14  1  0  0  0  0
 13 15  1  0  0  0  0
 13 16  1  0  0  0  0
 16 17  1  0  0  0  0
 16 18  1  0  0  0  0
 16 19  1  0  0  0  0
 19 20  1  0  0  0  0
 19 21  1  0  0  0  0
 19 22  1  0  0  0  0
M  END
> <VConfSearch Rank>
26

> <Conf_Id>
28

> <Delta U+W>
0.351

> <U+W>
-52.808

> <U>
7.689

> <W>
-60.498

> <W(PB)>
-62.768

> <W(SA)>
2.270

> <Valence>
8.197

> <Coulomb>
-1.561

> <VdW>
1.053

> <VdW6>
-7.737

> <VdW12>
8.791

> <Bond>
0.181

> <Angle>
2.780

> <Pdih>
5.235

> <Idih>
0.001

> <Tether>
0.000

$$$$
VeraChem MOL file


 22 21  0  0  0  0  0  0  0  0999 V2000     
   23.4479   19.9720   21.7261 C   0  0  0  0  0  0  0  0  0  0  0  0
   23.9913   19.5872   20.7096 O   0  5  0  0  0  0  0  0  0  0  0  0
   23.5561   21.1015   22.1609 O   0  0  0  0  0  0  0  0  0  0  0  0
   22.5656   18.9889   22.4873 C   0  0  0  0  0  0  0  0  0  0  0  0
   22.6261   19.2326   23.5548 H   0  0  0  0  0  0  0  0  0  0  0  0
   22.9865   17.9843   22.3596 H   0  0  0  0  0  0  0  0  0  0  0  0
   21.0906   19.0152   22.0164 C   0  0  0  0  0  0  0  0  0  0  0  0
   20.6987   20.0339   22.1350 H   0  0  0  0  0  0  0  0  0  0  0  0
   21.0478   18.7781   20.9443 H   0  0  0  0  0  0  0  0  0  0  0  0
   20.2183   18.0131   22.8075 C   0  0  0  0  0  0  0  0  0  0  0  0
   20.2185   18.2817   23.8728 H   0  0  0  0  0  0  0  0  0  0  0  0
   20.6707   17.0143   22.7387 H   0  0  0  0  0  0  0  0  0  0  0  0
   18.7608   17.9267   22.2957 C   0  0  0  0  0  0  0  0  0  0  0  0
   18.7600   17.6541   21.2315 H   0  0  0  0  0  0  0  0  0  0  0  0
   18.2537   17.1090   22.8260 H   0  0  0  0  0  0  0  0  0  0  0  0
   17.9573   19.2309   22.5001 C   0  0  0  0  0  0  0  0  0  0  0  0
   18.4029   20.0457   21.9146 H   0  0  0  0  0  0  0  0  0  0  0  0
   18.0020   19.5323   23.5557 H   0  0  0  0  0  0  0  0  0  0  0  0
   16.4839   19.0589   22.0788 C   0  0  0  0  0  0  0  0  0  0  0  0
   15.9940   18.2759   22.6723 H   0  0  0  0  0  0  0  0  0  0  0  0
   16.4085   18.7837   21.0187 H   0  0  0  0  0  0  0  0  0  0  0  0
   15.9278   19.9937   22.2267 H   0  0  0  0  0  0  0  0  0  0  0  0
  1  2  1  0  0  0  0
  1  3  2  0  0  0  0
  1  4  1  0  0  0  0
  4  5  1  0  0  0  0
  4  6  1  0  0  0  0
  4  7  1  0  0  0  0
  7  8  1  0  0  0  0
  7  9  1  0  0  0  0
  7 10  1  0  0  0  0
 10 11  1  0  0  0  0
 10 12  1  0  0  0  0
 10 13  1  0  0  0  0
 13 14  1  0  0  0  0
 13 15  1  0  0  0  0
 13 16  1  0  0  0  0
 16 17  1  0  0  0  0
 16 18  1  0  0  0  0
 16 19  1  0  0  0  0
 19 20  1  0  0  0  0
 19 21  1  0  0  0  0
 19 22  1  0  0  0  0
M  END
> <VConfSearch Rank>
27

> <Conf_Id>
50

> <Delta U+W>
-0.486

> <U+W>
-53.646

> <U>
7.026

> <W>
-60.672

> <W(PB)>
-62.964

> <W(SA)>
2.292

> <Valence>
7.637

> <Coulomb>
-1.488

> <VdW>
0.877

> <VdW6>
-7.165

> <VdW12>
8.043

> <Bond>
0.134

> <Angle>
2.513

> <Pdih>
4.990

> <Idih>
0.001

> <Tether>
0.000

$$$$
VeraChem MOL file


 22 21  0  0  0  0  0  0  0  0999 V2000     
   18.9448   19.8085   25.8238 C   0  0  0  0  0  0  0  0  0  0  0  0
   18.6037   20.9483   26.0709 O   0  5  0  0  0  0  0  0  0  0  0  0
   19.7076   19.1683   26.5201 O   0  0  0  0  0  0  0  0  0  0  0  0
   18.4017   19.1525   24.5593 C   0  0  0  0  0  0  0  0  0  0  0  0
   17.3929   19.5432   24.3794 H   0  0  0  0  0  0  0  0  0  0  0  0
   18.3041   18.0767   24.7484 H   0  0  0  0  0  0  0  0  0  0  0  0
   19.2993   19.3977   23.3213 C   0  0  0  0  0  0  0  0  0  0  0  0
   19.3944   20.4790   23.1508 H   0  0  0  0  0  0  0  0  0  0  0  0
   20.3070   19.0168   23.5330 H   0  0  0  0  0  0  0  0  0  0  0  0
   18.7277   18.7182   22.0553 C   0  0  0  0  0  0  0  0  0  0  0  0
   17.6928   19.0552   21.9057 H   0  0  0  0  0  0  0  0  0  0  0  0
   18.6818   17.6310   22.2066 H   0  0  0  0  0  0  0  0  0  0  0  0
   19.5340   19.0287   20.7719 C   0  0  0  0  0  0  0  0  0  0  0  0
   18.9912   18.6145   19.9112 H   0  0  0  0  0  0  0  0  0  0  0  0
   19.5768   20.1156   20.6180 H   0  0  0  0  0  0  0  0  0  0  0  0
   20.9661   18.4480   20.7878 C   0  0  0  0  0  0  0  0  0  0  0  0
   20.9265   17.3696   20.9942 H   0  0  0  0  0  0  0  0  0  0  0  0
   21.5520   18.9077   21.5945 H   0  0  0  0  0  0  0  0  0  0  0  0
   21.6876   18.6863   19.4461 C   0  0  0  0  0  0  0  0  0  0  0  0
   21.7656   19.7594   19.2276 H   0  0  0  0  0  0  0  0  0  0  0  0
   21.1486   18.2061   18.6189 H   0  0  0  0  0  0  0  0  0  0  0  0
   22.7036   18.2714   19.4743 H   0  0  0  0  0  0  0  0  0  0  0  0
  1  2  1  0  0  0  0
  1  3  2  0  0  0  0
  1  4  1  0  0  0  0
  4  5  1  0  0  0  0
  4  6  1  0  0  0  0
  4  7  1  0  0  0  0
  7  8  1  0  0  0  0
  7  9  1  0  0  0  0
  7 10  1  0  0  0  0
 10 11  1  0  0  0  0
 10 12  1  0  0  0  0
 10 13  1  0  0  0  0
 13 14  1  0  0  0  0
 13 15  1  0  0  0  0
 13 16  1  0  0  0  0
 16 17  1  0  0  0  0
 16 18  1  0  0  0  0
 16 19  1  0  0  0  0
 19 20  1  0  0  0  0
 19 21  1  0  0  0  0
 19 22  1  0  0  0  0
M  END
> <VConfSearch Rank>
28

> <Conf_Id>
51

> <Delta U+W>
-0.517

> <U+W>
-53.677

> <U>
7.026

> <W>
-60.703

> <W(PB)>
-63.007

> <W(SA)>
2.304

> <Valence>
7.638

> <Coulomb>
-1.488

> <VdW>
0.877

> <VdW6>
-7.165

> <VdW12>
8.042

> <Bond>
0.134

> <Angle>
2.513

> <Pdih>
4.990

> <Idih>
0.001

> <Tether>
0.000

$$$$
VeraChem MOL file


 22 21  0  0  0  0  0  0  0  0999 V2000     
   22.1166   16.1460   22.5347 C   0  0  0  0  0  0  0  0  0  0  0  0
   22.8850   16.2031   23.4744 O   0  5  0  0  0  0  0  0  0  0  0  0
   21.2943   15.2627   22.3912 O   0  0  0  0  0  0  0  0  0  0  0  0
   22.2035   17.2338   21.4678 C   0  0  0  0  0  0  0  0  0  0  0  0
   21.7170   16.8689   20.5551 H   0  0  0  0  0  0  0  0  0  0  0  0
   23.2641   17.3737   21.2278 H   0  0  0  0  0  0  0  0  0  0  0  0
   21.5866   18.5900   21.8979 C   0  0  0  0  0  0  0  0  0  0  0  0
   22.0642   18.9284   22.8280 H   0  0  0  0  0  0  0  0  0  0  0  0
   21.8149   19.3442   21.1327 H   0  0  0  0  0  0  0  0  0  0  0  0
   20.0560   18.5109   22.0943 C   0  0  0  0  0  0  0  0  0  0  0  0
   19.8203   17.7703   22.8711 H   0  0  0  0  0  0  0  0  0  0  0  0
   19.5846   18.1597   21.1662 H   0  0  0  0  0  0  0  0  0  0  0  0
   19.4591   19.8782   22.4914 C   0  0  0  0  0  0  0  0  0  0  0  0
   19.9309   20.2287   23.4196 H   0  0  0  0  0  0  0  0  0  0  0  0
   19.6910   20.6199   21.7147 H   0  0  0  0  0  0  0  0  0  0  0  0
   17.9307   19.7998   22.6884 C   0  0  0  0  0  0  0  0  0  0  0  0
   17.6949   19.0600   23.4660 H   0  0  0  0  0  0  0  0  0  0  0  0
   17.4550   19.4511   21.7613 H   0  0  0  0  0  0  0  0  0  0  0  0
   17.3383   21.1669   23.0854 C   0  0  0  0  0  0  0  0  0  0  0  0
   17.7740   21.5252   24.0273 H   0  0  0  0  0  0  0  0  0  0  0  0
   16.2515   21.0928   23.2214 H   0  0  0  0  0  0  0  0  0  0  0  0
   17.5323   21.9192   22.3098 H   0  0  0  0  0  0  0  0  0  0  0  0
  1  2  1  0  0  0  0
  1  3  2  0  0  0  0
  1  4  1  0  0  0  0
  4  5  1  0  0  0  0
  4  6  1  0  0  0  0
  4  7  1  0  0  0  0
  7  8  1  0  0  0  0
  7  9  1  0  0  0  0
  7 10  1  0  0  0  0
 10 11  1  0  0  0  0
 10 12  1  0  0  0  0
 10 13  1  0  0  0  0
 13 14  1  0  0  0  0
 13 15  1  0  0  0  0
 13 16  1  0  0  0  0
 16 17  1  0  0  0  0
 16 18  1  0  0  0  0
 16 19  1  0  0  0  0
 19 20  1  0  0  0  0
 19 21  1  0  0  0  0
 19 22  1  0  0  0  0
M  END
> <VConfSearch Rank>
29

> <Conf_Id>
43

> <Delta U+W>
-0.129

> <U+W>
-53.289

> <U>
7.937

> <W>
-61.225

> <W(PB)>
-63.523

> <W(SA)>
2.297

> <Valence>
7.358

> <Coulomb>
-0.022

> <VdW>
0.601

> <VdW6>
-7.363

> <VdW12>
7.964

> <Bond>
0.121

> <Angle>
2.425

> <Pdih>
4.811

> <Idih>
0.000

> <Tether>
0.000

$$$$
VeraChem MOL file


 22 21  0  0  0  0  0  0  0  0999 V2000     
   16.2932   18.6440   22.8490 C   0  0  0  0  0  0  0  0  0  0  0  0
   16.0231   18.2212   23.9559 O   0  5  0  0  0  0  0  0  0  0  0  0
   16.0353   18.0497   21.8209 O   0  0  0  0  0  0  0  0  0  0  0  0
   16.9772   20.0044   22.7462 C   0  0  0  0  0  0  0  0  0  0  0  0
   16.4471   20.6896   23.4183 H   0  0  0  0  0  0  0  0  0  0  0  0
   16.8404   20.3891   21.7283 H   0  0  0  0  0  0  0  0  0  0  0  0
   18.4840   19.9821   23.1124 C   0  0  0  0  0  0  0  0  0  0  0  0
   18.8580   21.0144   23.1457 H   0  0  0  0  0  0  0  0  0  0  0  0
   18.6068   19.5685   24.1231 H   0  0  0  0  0  0  0  0  0  0  0  0
   19.3278   19.1668   22.1071 C   0  0  0  0  0  0  0  0  0  0  0  0
   19.1913   19.5759   21.0967 H   0  0  0  0  0  0  0  0  0  0  0  0
   18.9705   18.1280   22.0808 H   0  0  0  0  0  0  0  0  0  0  0  0
   20.8276   19.1842   22.4731 C   0  0  0  0  0  0  0  0  0  0  0  0
   21.1880   20.2218   22.4972 H   0  0  0  0  0  0  0  0  0  0  0  0
   20.9632   18.7748   23.4836 H   0  0  0  0  0  0  0  0  0  0  0  0
   21.6708   18.3695   21.4700 C   0  0  0  0  0  0  0  0  0  0  0  0
   21.5390   18.7771   20.4581 H   0  0  0  0  0  0  0  0  0  0  0  0
   21.3143   17.3303   21.4445 H   0  0  0  0  0  0  0  0  0  0  0  0
   23.1678   18.3886   21.8390 C   0  0  0  0  0  0  0  0  0  0  0  0
   23.5587   19.4146   21.8412 H   0  0  0  0  0  0  0  0  0  0  0  0
   23.7520   17.8048   21.1159 H   0  0  0  0  0  0  0  0  0  0  0  0
   23.3323   17.9568   22.8350 H   0  0  0  0  0  0  0  0  0  0  0  0
  1  2  1  0  0  0  0
  1  3  2  0  0  0  0
  1  4  1  0  0  0  0
  4  5  1  0  0  0  0
  4  6  1  0  0  0  0
  4  7  1  0  0  0  0
  7  8  1  0  0  0  0
  7  9  1  0  0  0  0
  7 10  1  0  0  0  0
 10 11  1  0  0  0  0
 10 12  1  0  0  0  0
 10 13  1  0  0  0  0
 13 14  1  0  0  0  0
 13 15  1  0  0  0  0
 13 16  1  0  0  0  0
 16 17  1  0  0  0  0
 16 18  1  0  0  0  0
 16 19  1  0  0  0  0
 19 20  1  0  0  0  0
 19 21  1  0  0  0  0
 19 22  1  0  0  0  0
M  END
> <VConfSearch Rank>
30

> <Conf_Id>
44

> <Delta U+W>
-0.155

> <U+W>
-53.314

> <U>
7.937

> <W>
-61.252

> <W(PB)>
-63.556

> <W(SA)>
2.304

> <Valence>
7.358

> <Coulomb>
-0.021

> <VdW>
0.600

> <VdW6>
-7.363

> <VdW12>
7.964

> <Bond>
0.121

> <Angle>
2.425

> <Pdih>
4.811

> <Idih>
0.001

> <Tether>
0.000

$$$$
VeraChem MOL file


 22 21  0  0  0  0  0  0  0  0999 V2000     
   16.6888   18.4271   20.6278 C   0  0  0  0  0  0  0  0  0  0  0  0
   16.7588   17.4473   19.9122 O   0  5  0  0  0  0  0  0  0  0  0  0
   16.2624   19.5024   20.2552 O   0  0  0  0  0  0  0  0  0  0  0  0
   17.1438   18.2923   22.0783 C   0  0  0  0  0  0  0  0  0  0  0  0
   16.7104   17.3654   22.4721 H   0  0  0  0  0  0  0  0  0  0  0  0
   16.7121   19.1163   22.6593 H   0  0  0  0  0  0  0  0  0  0  0  0
   18.6841   18.2602   22.2578 C   0  0  0  0  0  0  0  0  0  0  0  0
   18.9068   18.0071   23.3021 H   0  0  0  0  0  0  0  0  0  0  0  0
   19.1058   17.4561   21.6390 H   0  0  0  0  0  0  0  0  0  0  0  0
   19.3524   19.6079   21.8940 C   0  0  0  0  0  0  0  0  0  0  0  0
   18.9603   20.4032   22.5424 H   0  0  0  0  0  0  0  0  0  0  0  0
   19.0753   19.8819   20.8668 H   0  0  0  0  0  0  0  0  0  0  0  0
   20.8964   19.5759   21.9884 C   0  0  0  0  0  0  0  0  0  0  0  0
   21.2882   18.7802   21.3400 H   0  0  0  0  0  0  0  0  0  0  0  0
   21.2884   20.5217   21.5902 H   0  0  0  0  0  0  0  0  0  0  0  0
   21.4235   19.3821   23.4282 C   0  0  0  0  0  0  0  0  0  0  0  0
   21.1103   18.4048   23.8180 H   0  0  0  0  0  0  0  0  0  0  0  0
   20.9886   20.1454   24.0880 H   0  0  0  0  0  0  0  0  0  0  0  0
   22.9618   19.4737   23.4840 C   0  0  0  0  0  0  0  0  0  0  0  0
   23.4239   18.7030   22.8533 H   0  0  0  0  0  0  0  0  0  0  0  0
   23.3207   19.3309   24.5115 H   0  0  0  0  0  0  0  0  0  0  0  0
   23.3102   20.4553   23.1369 H   0  0  0  0  0  0  0  0  0  0  0  0
  1  2  1  0  0  0  0
  1  3  2  0  0  0  0
  1  4  1  0  0  0  0
  4  5  1  0  0  0  0
  4  6  1  0  0  0  0
  4  7  1  0  0  0  0
  7  8  1  0  0  0  0
  7  9  1  0  0  0  0
  7 10  1  0  0  0  0
 10 11  1  0  0  0  0
 10 12  1  0  0  0  0
 10 13  1  0  0  0  0
 13 14  1  0  0  0  0
 13 15  1  0  0  0  0
 13 16  1  0  0  0  0
 16 17  1  0  0  0  0
 16 18  1  0  0  0  0
 16 19  1  0  0  0  0
 19 20  1  0  0  0  0
 19 21  1  0  0  0  0
 19 22  1  0  0  0  0
M  END
> <VConfSearch Rank>
31

> <Conf_Id>
53

> <Delta U+W>
0.723

> <U+W>
-52.436

> <U>
8.587

> <W>
-61.022

> <W(PB)>
-63.285

> <W(SA)>
2.263

> <Valence>
7.933

> <Coulomb>
-0.124

> <VdW>
0.778

> <VdW6>
-7.981

> <VdW12>
8.759

> <Bond>
0.160

> <Angle>
2.698

> <Pdih>
5.074

> <Idih>
0.001

> <Tether>
0.000

$$$$
VeraChem MOL file


 22 21  0  0  0  0  0  0  0  0999 V2000     
   18.0035   21.7071   21.5117 C   0  0  0  0  0  0  0  0  0  0  0  0
   18.6206   22.3351   20.6742 O   0  5  0  0  0  0  0  0  0  0  0  0
   16.8923   22.0120   21.8975 O   0  0  0  0  0  0  0  0  0  0  0  0
   18.6495   20.4553   22.0944 C   0  0  0  0  0  0  0  0  0  0  0  0
   18.2935   20.3357   23.1246 H   0  0  0  0  0  0  0  0  0  0  0  0
   19.7306   20.6293   22.1361 H   0  0  0  0  0  0  0  0  0  0  0  0
   18.3407   19.1808   21.2689 C   0  0  0  0  0  0  0  0  0  0  0  0
   17.2534   19.1078   21.1276 H   0  0  0  0  0  0  0  0  0  0  0  0
   18.7745   19.2867   20.2650 H   0  0  0  0  0  0  0  0  0  0  0  0
   18.8415   17.8644   21.9148 C   0  0  0  0  0  0  0  0  0  0  0  0
   18.5235   17.0364   21.2665 H   0  0  0  0  0  0  0  0  0  0  0  0
   18.3371   17.7004   22.8769 H   0  0  0  0  0  0  0  0  0  0  0  0
   20.3786   17.7758   22.0915 C   0  0  0  0  0  0  0  0  0  0  0  0
   20.6907   16.7386   21.9079 H   0  0  0  0  0  0  0  0  0  0  0  0
   20.8820   18.3857   21.3290 H   0  0  0  0  0  0  0  0  0  0  0  0
   20.8572   18.1782   23.5056 C   0  0  0  0  0  0  0  0  0  0  0  0
   20.3893   17.5220   24.2525 H   0  0  0  0  0  0  0  0  0  0  0  0
   20.5409   19.2006   23.7443 H   0  0  0  0  0  0  0  0  0  0  0  0
   22.3908   18.0804   23.6324 C   0  0  0  0  0  0  0  0  0  0  0  0
   22.7368   17.0566   23.4388 H   0  0  0  0  0  0  0  0  0  0  0  0
   22.7142   18.3621   24.6429 H   0  0  0  0  0  0  0  0  0  0  0  0
   22.8868   18.7509   22.9185 H   0  0  0  0  0  0  0  0  0  0  0  0
  1  2  1  0  0  0  0
  1  3  2  0  0  0  0
  1  4  1  0  0  0  0
  4  5  1  0  0  0  0
  4  6  1  0  0  0  0
  4  7  1  0  0  0  0
  7  8  1  0  0  0  0
  7  9  1  0  0  0  0
  7 10  1  0  0  0  0
 10 11  1  0  0  0  0
 10 12  1  0  0  0  0
 10 13  1  0  0  0  0
 13 14  1  0  0  0  0
 13 15  1  0  0  0  0
 13 16  1  0  0  0  0
 16 17  1  0  0  0  0
 16 18  1  0  0  0  0
 16 19  1  0  0  0  0
 19 20  1  0  0  0  0
 19 21  1  0  0  0  0
 19 22  1  0  0  0  0
M  END
> <VConfSearch Rank>
32

> <Conf_Id>
5

> <Delta U+W>
2.167

> <U+W>
-50.993

> <U>
10.045

> <W>
-61.037

> <W(PB)>
-63.303

> <W(SA)>
2.266

> <Valence>
10.100

> <Coulomb>
-0.883

> <VdW>
0.828

> <VdW6>
-8.177

> <VdW12>
9.005

> <Bond>
0.182

> <Angle>
2.988

> <Pdih>
6.930

> <Idih>
0.001

> <Tether>
0.000

$$$$
VeraChem MOL file


 22 21  0  0  0  0  0  0  0  0999 V2000     
   22.1648   19.9680   24.5403 C   0  0  0  0  0  0  0  0  0  0  0  0
   22.3870   19.0829   25.3426 O   0  5  0  0  0  0  0  0  0  0  0  0
   22.6586   21.0763   24.6077 O   0  0  0  0  0  0  0  0  0  0  0  0
   21.1958   19.6799   23.3993 C   0  0  0  0  0  0  0  0  0  0  0  0
   21.3088   18.6244   23.1275 H   0  0  0  0  0  0  0  0  0  0  0  0
   21.5007   20.2792   22.5333 H   0  0  0  0  0  0  0  0  0  0  0  0
   19.7228   19.9854   23.7712 C   0  0  0  0  0  0  0  0  0  0  0  0
   19.4108   19.3195   24.5876 H   0  0  0  0  0  0  0  0  0  0  0  0
   19.6653   21.0078   24.1696 H   0  0  0  0  0  0  0  0  0  0  0  0
   18.7270   19.8615   22.5906 C   0  0  0  0  0  0  0  0  0  0  0  0
   18.9736   20.5945   21.8103 H   0  0  0  0  0  0  0  0  0  0  0  0
   17.7341   20.1466   22.9645 H   0  0  0  0  0  0  0  0  0  0  0  0
   18.6229   18.4409   21.9801 C   0  0  0  0  0  0  0  0  0  0  0  0
   18.8637   17.6848   22.7399 H   0  0  0  0  0  0  0  0  0  0  0  0
   17.5780   18.2618   21.6917 H   0  0  0  0  0  0  0  0  0  0  0  0
   19.5071   18.2459   20.7267 C   0  0  0  0  0  0  0  0  0  0  0  0
   20.5596   18.4441   20.9617 H   0  0  0  0  0  0  0  0  0  0  0  0
   19.2155   18.9714   19.9549 H   0  0  0  0  0  0  0  0  0  0  0  0
   19.3755   16.8186   20.1586 C   0  0  0  0  0  0  0  0  0  0  0  0
   19.6915   16.0714   20.8983 H   0  0  0  0  0  0  0  0  0  0  0  0
   20.0030   16.6982   19.2660 H   0  0  0  0  0  0  0  0  0  0  0  0
   18.3372   16.6025   19.8747 H   0  0  0  0  0  0  0  0  0  0  0  0
  1  2  1  0  0  0  0
  1  3  2  0  0  0  0
  1  4  1  0  0  0  0
  4  5  1  0  0  0  0
  4  6  1  0  0  0  0
  4  7  1  0  0  0  0
  7  8  1  0  0  0  0
  7  9  1  0  0  0  0
  7 10  1  0  0  0  0
 10 11  1  0  0  0  0
 10 12  1  0  0  0  0
 10 13  1  0  0  0  0
 13 14  1  0  0  0  0
 13 15  1  0  0  0  0
 13 16  1  0  0  0  0
 16 17  1  0  0  0  0
 16 18  1  0  0  0  0
 16 19  1  0  0  0  0
 19 20  1  0  0  0  0
 19 21  1  0  0  0  0
 19 22  1  0  0  0  0
M  END
> <VConfSearch Rank>
33

> <Conf_Id>
6

> <Delta U+W>
2.118

> <U+W>
-51.042

> <U>
10.045

> <W>
-61.086

> <W(PB)>
-63.356

> <W(SA)>
2.270

> <Valence>
10.100

> <Coulomb>
-0.883

> <VdW>
0.828

> <VdW6>
-8.177

> <VdW12>
9.004

> <Bond>
0.182

> <Angle>
2.988

> <Pdih>
6.930

> <Idih>
0.001

> <Tether>
0.000

$$$$
VeraChem MOL file


 22 21  0  0  0  0  0  0  0  0999 V2000     
   19.9594   16.7679   24.1409 C   0  0  0  0  0  0  0  0  0  0  0  0
   20.0907   17.1572   25.2849 O   0  5  0  0  0  0  0  0  0  0  0  0
   20.8635   16.2808   23.4909 O   0  0  0  0  0  0  0  0  0  0  0  0
   18.5698   16.8278   23.5094 C   0  0  0  0  0  0  0  0  0  0  0  0
   17.9308   16.1684   24.1079 H   0  0  0  0  0  0  0  0  0  0  0  0
   18.6159   16.3921   22.5040 H   0  0  0  0  0  0  0  0  0  0  0  0
   17.9261   18.2419   23.4544 C   0  0  0  0  0  0  0  0  0  0  0  0
   16.8411   18.1161   23.3389 H   0  0  0  0  0  0  0  0  0  0  0  0
   18.0699   18.7567   24.4145 H   0  0  0  0  0  0  0  0  0  0  0  0
   18.4231   19.1370   22.2922 C   0  0  0  0  0  0  0  0  0  0  0  0
   17.7943   20.0375   22.2613 H   0  0  0  0  0  0  0  0  0  0  0  0
   18.2687   18.6200   21.3353 H   0  0  0  0  0  0  0  0  0  0  0  0
   19.9019   19.5685   22.4168 C   0  0  0  0  0  0  0  0  0  0  0  0
   20.0797   19.9930   23.4144 H   0  0  0  0  0  0  0  0  0  0  0  0
   20.5555   18.6925   22.3191 H   0  0  0  0  0  0  0  0  0  0  0  0
   20.2871   20.6030   21.3383 C   0  0  0  0  0  0  0  0  0  0  0  0
   19.6461   21.4908   21.4293 H   0  0  0  0  0  0  0  0  0  0  0  0
   20.1082   20.1804   20.3399 H   0  0  0  0  0  0  0  0  0  0  0  0
   21.7652   21.0251   21.4587 C   0  0  0  0  0  0  0  0  0  0  0  0
   21.9649   21.4800   22.4378 H   0  0  0  0  0  0  0  0  0  0  0  0
   22.0225   21.7595   20.6845 H   0  0  0  0  0  0  0  0  0  0  0  0
   22.4311   20.1601   21.3407 H   0  0  0  0  0  0  0  0  0  0  0  0
  1  2  1  0  0  0  0
  1  3  2  0  0  0  0
  1  4  1  0  0  0  0
  4  5  1  0  0  0  0
  4  6  1  0  0  0  0
  4  7  1  0  0  0  0
  7  8  1  0  0  0  0
  7  9  1  0  0  0  0
  7 10  1  0  0  0  0
 10 11  1  0  0  0  0
 10 12  1  0  0  0  0
 10 13  1  0  0  0  0
 13 14  1  0  0  0  0
 13 15  1  0  0  0  0
 13 16  1  0  0  0  0
 16 17  1  0  0  0  0
 16 18  1  0  0  0  0
 16 19  1  0  0  0  0
 19 20  1  0  0  0  0
 19 21  1  0  0  0  0
 19 22  1  0  0  0  0
M  END
> <VConfSearch Rank>
34

> <Conf_Id>
8

> <Delta U+W>
1.886

> <U+W>
-51.274

> <U>
11.237

> <W>
-62.510

> <W(PB)>
-64.777

> <W(SA)>
2.267

> <Valence>
9.029

> <Coulomb>
1.667

> <VdW>
0.540

> <VdW6>
-8.825

> <VdW12>
9.365

> <Bond>
0.186

> <Angle>
3.195

> <Pdih>
5.642

> <Idih>
0.007

> <Tether>
0.000

$$$$
VeraChem MOL file


 22 21  0  0  0  0  0  0  0  0999 V2000     
   18.9403   17.5567   19.7918 C   0  0  0  0  0  0  0  0  0  0  0  0
   20.1196   17.4988   19.5042 O   0  5  0  0  0  0  0  0  0  0  0  0
   18.0779   17.9291   19.0204 O   0  0  0  0  0  0  0  0  0  0  0  0
   18.5127   17.1096   21.1869 C   0  0  0  0  0  0  0  0  0  0  0  0
   19.3374   16.5527   21.6456 H   0  0  0  0  0  0  0  0  0  0  0  0
   17.6900   16.3960   21.0619 H   0  0  0  0  0  0  0  0  0  0  0  0
   18.0497   18.2687   22.1118 C   0  0  0  0  0  0  0  0  0  0  0  0
   17.1738   18.7515   21.6569 H   0  0  0  0  0  0  0  0  0  0  0  0
   17.7081   17.8517   23.0688 H   0  0  0  0  0  0  0  0  0  0  0  0
   19.1271   19.3480   22.3818 C   0  0  0  0  0  0  0  0  0  0  0  0
   18.6604   20.1543   22.9615 H   0  0  0  0  0  0  0  0  0  0  0  0
   19.4496   19.7960   21.4320 H   0  0  0  0  0  0  0  0  0  0  0  0
   20.3607   18.8095   23.1471 C   0  0  0  0  0  0  0  0  0  0  0  0
   20.0404   18.3430   24.0885 H   0  0  0  0  0  0  0  0  0  0  0  0
   20.8397   18.0206   22.5528 H   0  0  0  0  0  0  0  0  0  0  0  0
   21.4226   19.8947   23.4417 C   0  0  0  0  0  0  0  0  0  0  0  0
   21.7334   20.3736   22.5028 H   0  0  0  0  0  0  0  0  0  0  0  0
   22.3179   19.4076   23.8520 H   0  0  0  0  0  0  0  0  0  0  0  0
   20.9424   20.9695   24.4412 C   0  0  0  0  0  0  0  0  0  0  0  0
   20.1228   21.5681   24.0249 H   0  0  0  0  0  0  0  0  0  0  0  0
   21.7620   21.6565   24.6883 H   0  0  0  0  0  0  0  0  0  0  0  0
   20.5940   20.5097   25.3752 H   0  0  0  0  0  0  0  0  0  0  0  0
  1  2  1  0  0  0  0
  1  3  2  0  0  0  0
  1  4  1  0  0  0  0
  4  5  1  0  0  0  0
  4  6  1  0  0  0  0
  4  7  1  0  0  0  0
  7  8  1  0  0  0  0
  7  9  1  0  0  0  0
  7 10  1  0  0  0  0
 10 11  1  0  0  0  0
 10 12  1  0  0  0  0
 10 13  1  0  0  0  0
 13 14  1  0  0  0  0
 13 15  1  0  0  0  0
 13 16  1  0  0  0  0
 16 17  1  0  0  0  0
 16 18  1  0  0  0  0
 16 19  1  0  0  0  0
 19 20  1  0  0  0  0
 19 21  1  0  0  0  0
 19 22  1  0  0  0  0
M  END
> <VConfSearch Rank>
35

> <Conf_Id>
93

> <Delta U+W>
1.836

> <U+W>
-51.323

> <U>
10.427

> <W>
-61.751

> <W(PB)>
-63.980

> <W(SA)>
2.230

> <Valence>
8.446

> <Coulomb>
1.306

> <VdW>
0.676

> <VdW6>
-8.928

> <VdW12>
9.604

> <Bond>
0.209

> <Angle>
3.066

> <Pdih>
5.170

> <Idih>
0.001

> <Tether>
0.000

$$$$
VeraChem MOL file


 22 21  0  0  0  0  0  0  0  0999 V2000     
   20.3347   19.7514   25.4073 C   0  0  0  0  0  0  0  0  0  0  0  0
   20.9563   19.0323   26.1648 O   0  5  0  0  0  0  0  0  0  0  0  0
   19.1715   20.0597   25.5764 O   0  0  0  0  0  0  0  0  0  0  0  0
   21.0655   20.3210   24.1946 C   0  0  0  0  0  0  0  0  0  0  0  0
   22.0023   20.7607   24.5563 H   0  0  0  0  0  0  0  0  0  0  0  0
   20.4746   21.1476   23.7845 H   0  0  0  0  0  0  0  0  0  0  0  0
   21.3832   19.2723   23.0935 C   0  0  0  0  0  0  0  0  0  0  0  0
   21.9564   19.7550   22.2906 H   0  0  0  0  0  0  0  0  0  0  0  0
   22.0414   18.5033   23.5212 H   0  0  0  0  0  0  0  0  0  0  0  0
   20.1392   18.5785   22.4854 C   0  0  0  0  0  0  0  0  0  0  0  0
   19.5783   18.0625   23.2766 H   0  0  0  0  0  0  0  0  0  0  0  0
   20.4892   17.7998   21.7961 H   0  0  0  0  0  0  0  0  0  0  0  0
   19.1985   19.5503   21.7315 C   0  0  0  0  0  0  0  0  0  0  0  0
   18.8304   20.3129   22.4300 H   0  0  0  0  0  0  0  0  0  0  0  0
   19.7603   20.0828   20.9523 H   0  0  0  0  0  0  0  0  0  0  0  0
   17.9718   18.8514   21.0999 C   0  0  0  0  0  0  0  0  0  0  0  0
   17.2891   19.6212   20.7146 H   0  0  0  0  0  0  0  0  0  0  0  0
   17.4168   18.3050   21.8749 H   0  0  0  0  0  0  0  0  0  0  0  0
   18.3373   17.8923   19.9461 C   0  0  0  0  0  0  0  0  0  0  0  0
   18.9205   17.0354   20.3051 H   0  0  0  0  0  0  0  0  0  0  0  0
   18.9232   18.4099   19.1755 H   0  0  0  0  0  0  0  0  0  0  0  0
   17.4286   17.4992   19.4721 H   0  0  0  0  0  0  0  0  0  0  0  0
  1  2  1  0  0  0  0
  1  3  2  0  0  0  0
  1  4  1  0  0  0  0
  4  5  1  0  0  0  0
  4  6  1  0  0  0  0
  4  7  1  0  0  0  0
  7  8  1  0  0  0  0
  7  9  1  0  0  0  0
  7 10  1  0  0  0  0
 10 11  1  0  0  0  0
 10 12  1  0  0  0  0
 10 13  1  0  0  0  0
 13 14  1  0  0  0  0
 13 15  1  0  0  0  0
 13 16  1  0  0  0  0
 16 17  1  0  0  0  0
 16 18  1  0  0  0  0
 16 19  1  0  0  0  0
 19 20  1  0  0  0  0
 19 21  1  0  0  0  0
 19 22  1  0  0  0  0
M  END
> <VConfSearch Rank>
36

> <Conf_Id>
70

> <Delta U+W>
1.803

> <U+W>
-51.356

> <U>
10.428

> <W>
-61.784

> <W(PB)>
-64.014

> <W(SA)>
2.230

> <Valence>
8.445

> <Coulomb>
1.306

> <VdW>
0.676

> <VdW6>
-8.929

> <VdW12>
9.605

> <Bond>
0.209

> <Angle>
3.066

> <Pdih>
5.170

> <Idih>
0.001

> <Tether>
0.000

$$$$
VeraChem MOL file


 22 21  0  0  0  0  0  0  0  0999 V2000     
   20.1929   16.9639   24.9539 C   0  0  0  0  0  0  0  0  0  0  0  0
   19.3692   17.3183   25.7741 O   0  5  0  0  0  0  0  0  0  0  0  0
   21.3864   16.9150   25.1774 O   0  0  0  0  0  0  0  0  0  0  0  0
   19.6970   16.5372   23.5750 C   0  0  0  0  0  0  0  0  0  0  0  0
   18.8287   15.8849   23.7256 H   0  0  0  0  0  0  0  0  0  0  0  0
   20.4731   15.9270   23.0972 H   0  0  0  0  0  0  0  0  0  0  0  0
   19.3022   17.7207   22.6539 C   0  0  0  0  0  0  0  0  0  0  0  0
   18.8377   17.3231   21.7415 H   0  0  0  0  0  0  0  0  0  0  0  0
   18.5397   18.3266   23.1609 H   0  0  0  0  0  0  0  0  0  0  0  0
   20.5153   18.6004   22.2680 C   0  0  0  0  0  0  0  0  0  0  0  0
   21.3000   17.9597   21.8430 H   0  0  0  0  0  0  0  0  0  0  0  0
   20.9453   19.0593   23.1690 H   0  0  0  0  0  0  0  0  0  0  0  0
   20.1730   19.7052   21.2404 C   0  0  0  0  0  0  0  0  0  0  0  0
   21.1067   20.1959   20.9332 H   0  0  0  0  0  0  0  0  0  0  0  0
   19.7501   19.2483   20.3353 H   0  0  0  0  0  0  0  0  0  0  0  0
   19.2009   20.7747   21.7874 C   0  0  0  0  0  0  0  0  0  0  0  0
   19.5992   21.1942   22.7216 H   0  0  0  0  0  0  0  0  0  0  0  0
   18.2323   20.3176   22.0287 H   0  0  0  0  0  0  0  0  0  0  0  0
   18.9793   21.9112   20.7690 C   0  0  0  0  0  0  0  0  0  0  0  0
   19.9244   22.4176   20.5330 H   0  0  0  0  0  0  0  0  0  0  0  0
   18.2848   22.6604   21.1708 H   0  0  0  0  0  0  0  0  0  0  0  0
   18.5552   21.5228   19.8338 H   0  0  0  0  0  0  0  0  0  0  0  0
  1  2  1  0  0  0  0
  1  3  2  0  0  0  0
  1  4  1  0  0  0  0
  4  5  1  0  0  0  0
  4  6  1  0  0  0  0
  4  7  1  0  0  0  0
  7  8  1  0  0  0  0
  7  9  1  0  0  0  0
  7 10  1  0  0  0  0
 10 11  1  0  0  0  0
 10 12  1  0  0  0  0
 10 13  1  0  0  0  0
 13 14  1  0  0  0  0
 13 15  1  0  0  0  0
 13 16  1  0  0  0  0
 16 17  1  0  0  0  0
 16 18  1  0  0  0  0
 16 19  1  0  0  0  0
 19 20  1  0  0  0  0
 19 21  1  0  0  0  0
 19 22  1  0  0  0  0
M  END
> <VConfSearch Rank>
37

> <Conf_Id>
85

> <Delta U+W>
0.707

> <U+W>
-52.452

> <U>
8.925

> <W>
-61.378

> <W(PB)>
-63.661

> <W(SA)>
2.283

> <Valence>
7.881

> <Coulomb>
0.349

> <VdW>
0.695

> <VdW6>
-8.049

> <VdW12>
8.743

> <Bond>
0.156

> <Angle>
2.660

> <Pdih>
5.064

> <Idih>
0.001

> <Tether>
0.000

$$$$
VeraChem MOL file


 22 21  0  0  0  0  0  0  0  0999 V2000     
   18.2842   19.3310   25.2856 C   0  0  0  0  0  0  0  0  0  0  0  0
   18.1162   18.2904   25.8903 O   0  5  0  0  0  0  0  0  0  0  0  0
   18.7148   20.3448   25.7992 O   0  0  0  0  0  0  0  0  0  0  0  0
   17.9132   19.3760   23.8058 C   0  0  0  0  0  0  0  0  0  0  0  0
   17.3364   20.2938   23.6415 H   0  0  0  0  0  0  0  0  0  0  0  0
   17.2428   18.5362   23.5864 H   0  0  0  0  0  0  0  0  0  0  0  0
   19.1319   19.3529   22.8467 C   0  0  0  0  0  0  0  0  0  0  0  0
   18.7733   19.5465   21.8279 H   0  0  0  0  0  0  0  0  0  0  0  0
   19.8177   20.1706   23.1081 H   0  0  0  0  0  0  0  0  0  0  0  0
   19.8863   18.0035   22.8754 C   0  0  0  0  0  0  0  0  0  0  0  0
   19.2168   17.2038   22.5303 H   0  0  0  0  0  0  0  0  0  0  0  0
   20.1470   17.7579   23.9139 H   0  0  0  0  0  0  0  0  0  0  0  0
   21.1879   17.9843   22.0351 C   0  0  0  0  0  0  0  0  0  0  0  0
   21.9027   18.7184   22.4315 H   0  0  0  0  0  0  0  0  0  0  0  0
   21.6588   17.0022   22.1792 H   0  0  0  0  0  0  0  0  0  0  0  0
   20.9827   18.2015   20.5151 C   0  0  0  0  0  0  0  0  0  0  0  0
   19.9835   17.8590   20.2124 H   0  0  0  0  0  0  0  0  0  0  0  0
   21.6992   17.5711   19.9705 H   0  0  0  0  0  0  0  0  0  0  0  0
   21.2040   19.6654   20.0737 C   0  0  0  0  0  0  0  0  0  0  0  0
   20.5083   20.3514   20.5700 H   0  0  0  0  0  0  0  0  0  0  0  0
   21.0584   19.7660   18.9905 H   0  0  0  0  0  0  0  0  0  0  0  0
   22.2257   19.9927   20.3067 H   0  0  0  0  0  0  0  0  0  0  0  0
  1  2  1  0  0  0  0
  1  3  2  0  0  0  0
  1  4  1  0  0  0  0
  4  5  1  0  0  0  0
  4  6  1  0  0  0  0
  4  7  1  0  0  0  0
  7  8  1  0  0  0  0
  7  9  1  0  0  0  0
  7 10  1  0  0  0  0
 10 11  1  0  0  0  0
 10 12  1  0  0  0  0
 10 13  1  0  0  0  0
 13 14  1  0  0  0  0
 13 15  1  0  0  0  0
 13 16  1  0  0  0  0
 16 17  1  0  0  0  0
 16 18  1  0  0  0  0
 16 19  1  0  0  0  0
 19 20  1  0  0  0  0
 19 21  1  0  0  0  0
 19 22  1  0  0  0  0
M  END
> <VConfSearch Rank>
38

> <Conf_Id>
82

> <Delta U+W>
3.438

> <U+W>
-49.721

> <U>
11.773

> <W>
-61.495

> <W(PB)>
-63.749

> <W(SA)>
2.254

> <Valence>
10.419

> <Coulomb>
0.565

> <VdW>
0.789

> <VdW6>
-8.847

> <VdW12>
9.636

> <Bond>
0.200

> <Angle>
3.187

> <Pdih>
7.032

> <Idih>
0.001

> <Tether>
0.000

$$$$
VeraChem MOL file


 22 21  0  0  0  0  0  0  0  0999 V2000     
   22.8640   17.3276   22.2494 C   0  0  0  0  0  0  0  0  0  0  0  0
   22.6955   16.1770   22.6025 O   0  5  0  0  0  0  0  0  0  0  0  0
   23.5166   17.6423   21.2737 O   0  0  0  0  0  0  0  0  0  0  0  0
   22.2407   18.4372   23.0916 C   0  0  0  0  0  0  0  0  0  0  0  0
   22.7502   19.3808   22.8617 H   0  0  0  0  0  0  0  0  0  0  0  0
   22.4545   18.2090   24.1424 H   0  0  0  0  0  0  0  0  0  0  0  0
   20.7098   18.5945   22.8983 C   0  0  0  0  0  0  0  0  0  0  0  0
   20.2171   17.6305   23.0859 H   0  0  0  0  0  0  0  0  0  0  0  0
   20.3370   19.2991   23.6523 H   0  0  0  0  0  0  0  0  0  0  0  0
   20.3379   19.1102   21.4887 C   0  0  0  0  0  0  0  0  0  0  0  0
   20.8064   18.4649   20.7332 H   0  0  0  0  0  0  0  0  0  0  0  0
   20.7640   20.1121   21.3426 H   0  0  0  0  0  0  0  0  0  0  0  0
   18.8148   19.1521   21.2079 C   0  0  0  0  0  0  0  0  0  0  0  0
   18.6802   19.4771   20.1672 H   0  0  0  0  0  0  0  0  0  0  0  0
   18.3943   18.1385   21.2602 H   0  0  0  0  0  0  0  0  0  0  0  0
   18.0126   20.1136   22.1201 C   0  0  0  0  0  0  0  0  0  0  0  0
   17.2145   20.5781   21.5247 H   0  0  0  0  0  0  0  0  0  0  0  0
   18.6543   20.9362   22.4648 H   0  0  0  0  0  0  0  0  0  0  0  0
   17.3567   19.4039   23.3255 C   0  0  0  0  0  0  0  0  0  0  0  0
   16.6572   18.6281   22.9880 H   0  0  0  0  0  0  0  0  0  0  0  0
   16.7925   20.1227   23.9336 H   0  0  0  0  0  0  0  0  0  0  0  0
   18.1010   18.9284   23.9742 H   0  0  0  0  0  0  0  0  0  0  0  0
  1  2  1  0  0  0  0
  1  3  2  0  0  0  0
  1  4  1  0  0  0  0
  4  5  1  0  0  0  0
  4  6  1  0  0  0  0
  4  7  1  0  0  0  0
  7  8  1  0  0  0  0
  7  9  1  0  0  0  0
  7 10  1  0  0  0  0
 10 11  1  0  0  0  0
 10 12  1  0  0  0  0
 10 13  1  0  0  0  0
 13 14  1  0  0  0  0
 13 15  1  0  0  0  0
 13 16  1  0  0  0  0
 16 17  1  0  0  0  0
 16 18  1  0  0  0  0
 16 19  1  0  0  0  0
 19 20  1  0  0  0  0
 19 21  1  0  0  0  0
 19 22  1  0  0  0  0
M  END
> <VConfSearch Rank>
39

> <Conf_Id>
94

> <Delta U+W>
3.471

> <U+W>
-49.688

> <U>
11.773

> <W>
-61.461

> <W(PB)>
-63.710

> <W(SA)>
2.248

> <Valence>
10.419

> <Coulomb>
0.566

> <VdW>
0.789

> <VdW6>
-8.847

> <VdW12>
9.636

> <Bond>
0.200

> <Angle>
3.187

> <Pdih>
7.032

> <Idih>
0.001

> <Tether>
0.000

$$$$
VeraChem MOL file


 22 21  0  0  0  0  0  0  0  0999 V2000     
   19.2110   20.6738   25.2207 C   0  0  0  0  0  0  0  0  0  0  0  0
   18.7088   20.3106   26.2660 O   0  5  0  0  0  0  0  0  0  0  0  0
   19.1609   21.8170   24.8119 O   0  0  0  0  0  0  0  0  0  0  0  0
   19.9264   19.6335   24.3662 C   0  0  0  0  0  0  0  0  0  0  0  0
   20.3761   18.8919   25.0370 H   0  0  0  0  0  0  0  0  0  0  0  0
   20.7459   20.1384   23.8423 H   0  0  0  0  0  0  0  0  0  0  0  0
   18.9816   18.9358   23.3539 C   0  0  0  0  0  0  0  0  0  0  0  0
   18.1291   18.5110   23.9015 H   0  0  0  0  0  0  0  0  0  0  0  0
   18.5602   19.6834   22.6688 H   0  0  0  0  0  0  0  0  0  0  0  0
   19.6661   17.8023   22.5494 C   0  0  0  0  0  0  0  0  0  0  0  0
   18.9198   17.3284   21.8983 H   0  0  0  0  0  0  0  0  0  0  0  0
   19.9914   17.0191   23.2474 H   0  0  0  0  0  0  0  0  0  0  0  0
   20.8849   18.2415   21.6957 C   0  0  0  0  0  0  0  0  0  0  0  0
   21.6968   18.5645   22.3603 H   0  0  0  0  0  0  0  0  0  0  0  0
   21.2716   17.3637   21.1605 H   0  0  0  0  0  0  0  0  0  0  0  0
   20.5998   19.3654   20.6692 C   0  0  0  0  0  0  0  0  0  0  0  0
   21.5354   19.6085   20.1472 H   0  0  0  0  0  0  0  0  0  0  0  0
   20.2944   20.2835   21.1887 H   0  0  0  0  0  0  0  0  0  0  0  0
   19.5326   18.9789   19.6225 C   0  0  0  0  0  0  0  0  0  0  0  0
   19.8103   18.0533   19.1019 H   0  0  0  0  0  0  0  0  0  0  0  0
   19.4267   19.7717   18.8709 H   0  0  0  0  0  0  0  0  0  0  0  0
   18.5513   18.8302   20.0903 H   0  0  0  0  0  0  0  0  0  0  0  0
  1  2  1  0  0  0  0
  1  3  2  0  0  0  0
  1  4  1  0  0  0  0
  4  5  1  0  0  0  0
  4  6  1  0  0  0  0
  4  7  1  0  0  0  0
  7  8  1  0  0  0  0
  7  9  1  0  0  0  0
  7 10  1  0  0  0  0
 10 11  1  0  0  0  0
 10 12  1  0  0  0  0
 10 13  1  0  0  0  0
 13 14  1  0  0  0  0
 13 15  1  0  0  0  0
 13 16  1  0  0  0  0
 16 17  1  0  0  0  0
 16 18  1  0  0  0  0
 16 19  1  0  0  0  0
 19 20  1  0  0  0  0
 19 21  1  0  0  0  0
 19 22  1  0  0  0  0
M  END
> <VConfSearch Rank>
40

> <Conf_Id>
56

> <Delta U+W>
0.853

> <U+W>
-52.307

> <U>
8.874

> <W>
-61.181

> <W(PB)>
-63.413

> <W(SA)>
2.232

> <Valence>
8.479

> <Coulomb>
-0.357

> <VdW>
0.753

> <VdW6>
-9.081

> <VdW12>
9.833

> <Bond>
0.221

> <Angle>
3.208

> <Pdih>
5.050

> <Idih>
0.000

> <Tether>
0.000

$$$$
VeraChem MOL file


 22 21  0  0  0  0  0  0  0  0999 V2000     
   16.5271   20.7701   23.6518 C   0  0  0  0  0  0  0  0  0  0  0  0
   16.3931   21.4761   22.6709 O   0  5  0  0  0  0  0  0  0  0  0  0
   15.7769   20.8115   24.6064 O   0  0  0  0  0  0  0  0  0  0  0  0
   17.6853   19.7732   23.7169 C   0  0  0  0  0  0  0  0  0  0  0  0
   17.2517   18.7777   23.8685 H   0  0  0  0  0  0  0  0  0  0  0  0
   18.2696   20.0088   24.6141 H   0  0  0  0  0  0  0  0  0  0  0  0
   18.6156   19.7564   22.4748 C   0  0  0  0  0  0  0  0  0  0  0  0
   18.0230   19.5259   21.5786 H   0  0  0  0  0  0  0  0  0  0  0  0
   19.0419   20.7581   22.3251 H   0  0  0  0  0  0  0  0  0  0  0  0
   19.7544   18.7242   22.6242 C   0  0  0  0  0  0  0  0  0  0  0  0
   19.3258   17.7236   22.7738 H   0  0  0  0  0  0  0  0  0  0  0  0
   20.3453   18.9566   23.5208 H   0  0  0  0  0  0  0  0  0  0  0  0
   20.6786   18.7092   21.3877 C   0  0  0  0  0  0  0  0  0  0  0  0
   20.0881   18.4769   20.4908 H   0  0  0  0  0  0  0  0  0  0  0  0
   21.1075   19.7095   21.2378 H   0  0  0  0  0  0  0  0  0  0  0  0
   21.8168   17.6779   21.5363 C   0  0  0  0  0  0  0  0  0  0  0  0
   21.3916   16.6755   21.6845 H   0  0  0  0  0  0  0  0  0  0  0  0
   22.4110   17.9082   22.4315 H   0  0  0  0  0  0  0  0  0  0  0  0
   22.7375   17.6660   20.2996 C   0  0  0  0  0  0  0  0  0  0  0  0
   22.1745   17.4072   19.3933 H   0  0  0  0  0  0  0  0  0  0  0  0
   23.5405   16.9276   20.4221 H   0  0  0  0  0  0  0  0  0  0  0  0
   23.2015   18.6491   20.1459 H   0  0  0  0  0  0  0  0  0  0  0  0
  1  2  1  0  0  0  0
  1  3  2  0  0  0  0
  1  4  1  0  0  0  0
  4  5  1  0  0  0  0
  4  6  1  0  0  0  0
  4  7  1  0  0  0  0
  7  8  1  0  0  0  0
  7  9  1  0  0  0  0
  7 10  1  0  0  0  0
 10 11  1  0  0  0  0
 10 12  1  0  0  0  0
 10 13  1  0  0  0  0
 13 14  1  0  0  0  0
 13 15  1  0  0  0  0
 13 16  1  0  0  0  0
 16 17  1  0  0  0  0
 16 18  1  0  0  0  0
 16 19  1  0  0  0  0
 19 20  1  0  0  0  0
 19 21  1  0  0  0  0
 19 22  1  0  0  0  0
M  END
> <VConfSearch Rank>
41

> <Conf_Id>
0

> <Delta U+W>
0.000

> <U+W>
-53.159

> <U>
6.763

> <W>
-59.922

> <W(PB)>
-62.256

> <W(SA)>
2.334

> <Valence>
7.600

> <Coulomb>
-2.139

> <VdW>
1.302

> <VdW6>
-6.786

> <VdW12>
8.088

> <Bond>
0.134

> <Angle>
2.720

> <Pdih>
4.746

> <Idih>
0.000

> <Tether>
0.000

$$$$
VeraChem MOL file


 22 21  0  0  0  0  0  0  0  0999 V2000     
   20.3464   21.5503   19.1219 C   0  0  0  0  0  0  0  0  0  0  0  0
   19.7739   21.2398   18.0961 O   0  5  0  0  0  0  0  0  0  0  0  0
   21.4104   22.1366   19.1479 O   0  0  0  0  0  0  0  0  0  0  0  0
   19.7052   21.1632   20.4498 C   0  0  0  0  0  0  0  0  0  0  0  0
   18.6162   21.1904   20.3230 H   0  0  0  0  0  0  0  0  0  0  0  0
   19.9647   21.9298   21.1898 H   0  0  0  0  0  0  0  0  0  0  0  0
   20.1505   19.7664   20.9484 C   0  0  0  0  0  0  0  0  0  0  0  0
   19.8954   19.0123   20.1908 H   0  0  0  0  0  0  0  0  0  0  0  0
   21.2439   19.7516   21.0575 H   0  0  0  0  0  0  0  0  0  0  0  0
   19.4880   19.3980   22.2934 C   0  0  0  0  0  0  0  0  0  0  0  0
   18.3951   19.4148   22.1811 H   0  0  0  0  0  0  0  0  0  0  0  0
   19.7439   20.1544   23.0481 H   0  0  0  0  0  0  0  0  0  0  0  0
   19.9338   18.0051   22.7880 C   0  0  0  0  0  0  0  0  0  0  0  0
   19.6780   17.2485   22.0336 H   0  0  0  0  0  0  0  0  0  0  0  0
   21.0266   17.9879   22.9004 H   0  0  0  0  0  0  0  0  0  0  0  0
   19.2720   17.6362   24.1322 C   0  0  0  0  0  0  0  0  0  0  0  0
   18.1787   17.6505   24.0233 H   0  0  0  0  0  0  0  0  0  0  0  0
   19.5273   18.3899   24.8901 H   0  0  0  0  0  0  0  0  0  0  0  0
   19.7198   16.2447   24.6227 C   0  0  0  0  0  0  0  0  0  0  0  0
   20.8072   16.2115   24.7707 H   0  0  0  0  0  0  0  0  0  0  0  0
   19.4485   15.4665   23.8972 H   0  0  0  0  0  0  0  0  0  0  0  0
   19.2399   15.9987   25.5789 H   0  0  0  0  0  0  0  0  0  0  0  0
  1  2  1  0  0  0  0
  1  3  2  0  0  0  0
  1  4  1  0  0  0  0
  4  5  1  0  0  0  0
  4  6  1  0  0  0  0
  4  7  1  0  0  0  0
  7  8  1  0  0  0  0
  7  9  1  0  0  0  0
  7 10  1  0  0  0  0
 10 11  1  0  0  0  0
 10 12  1  0  0  0  0
 10 13  1  0  0  0  0
 13 14  1  0  0  0  0
 13 15  1  0  0  0  0
 13 16  1  0  0  0  0
 16 17  1  0  0  0  0
 16 18  1  0  0  0  0
 16 19  1  0  0  0  0
 19 20  1  0  0  0  0
 19 21  1  0  0  0  0
 19 22  1  0  0  0  0
M  END
> <VConfSearch Rank>
42

> <Conf_Id>
10

> <Delta U+W>
-1.291

> <U+W>
-54.451

> <U>
5.779

> <W>
-60.230

> <W(PB)>
-62.557

> <W(SA)>
2.328

> <Valence>
7.101

> <Coulomb>
-2.079

> <VdW>
0.757

> <VdW6>
-6.496

> <VdW12>
7.253

> <Bond>
0.100

> <Angle>
2.262

> <Pdih>
4.738

> <Idih>
0.001

> <Tether>
0.000

$$$$
VeraChem MOL file


 22 21  0  0  0  0  0  0  0  0999 V2000     
   22.4495   16.7598   20.2651 C   0  0  0  0  0  0  0  0  0  0  0  0
   23.5938   16.9449   20.6296 O   0  5  0  0  0  0  0  0  0  0  0  0
   22.0606   15.7203   19.7704 O   0  0  0  0  0  0  0  0  0  0  0  0
   21.4411   17.8866   20.4585 C   0  0  0  0  0  0  0  0  0  0  0  0
   20.7086   17.8319   19.6442 H   0  0  0  0  0  0  0  0  0  0  0  0
   21.9718   18.8406   20.3535 H   0  0  0  0  0  0  0  0  0  0  0  0
   20.7226   17.8227   21.8289 C   0  0  0  0  0  0  0  0  0  0  0  0
   20.2076   16.8566   21.9235 H   0  0  0  0  0  0  0  0  0  0  0  0
   21.4702   17.8660   22.6331 H   0  0  0  0  0  0  0  0  0  0  0  0
   19.7075   18.9736   22.0000 C   0  0  0  0  0  0  0  0  0  0  0  0
   18.9603   18.9266   21.1961 H   0  0  0  0  0  0  0  0  0  0  0  0
   20.2308   19.9332   21.8967 H   0  0  0  0  0  0  0  0  0  0  0  0
   18.9958   18.9075   23.3709 C   0  0  0  0  0  0  0  0  0  0  0  0
   18.5372   17.9161   23.4880 H   0  0  0  0  0  0  0  0  0  0  0  0
   19.7355   19.0054   24.1772 H   0  0  0  0  0  0  0  0  0  0  0  0
   17.8960   19.9806   23.5450 C   0  0  0  0  0  0  0  0  0  0  0  0
   17.3647   19.7908   24.4878 H   0  0  0  0  0  0  0  0  0  0  0  0
   17.1508   19.8817   22.7437 H   0  0  0  0  0  0  0  0  0  0  0  0
   18.4471   21.4228   23.5669 C   0  0  0  0  0  0  0  0  0  0  0  0
   17.6423   22.1379   23.7811 H   0  0  0  0  0  0  0  0  0  0  0  0
   18.8871   21.6984   22.6004 H   0  0  0  0  0  0  0  0  0  0  0  0
   19.2164   21.5378   24.3415 H   0  0  0  0  0  0  0  0  0  0  0  0
  1  2  1  0  0  0  0
  1  3  2  0  0  0  0
  1  4  1  0  0  0  0
  4  5  1  0  0  0  0
  4  6  1  0  0  0  0
  4  7  1  0  0  0  0
  7  8  1  0  0  0  0
  7  9  1  0  0  0  0
  7 10  1  0  0  0  0
 10 11  1  0  0  0  0
 10 12  1  0  0  0  0
 10 13  1  0  0  0  0
 13 14  1  0  0  0  0
 13 15  1  0  0  0  0
 13 16  1  0  0  0  0
 16 17  1  0  0  0  0
 16 18  1  0  0  0  0
 16 19  1  0  0  0  0
 19 20  1  0  0  0  0
 19 21  1  0  0  0  0
 19 22  1  0  0  0  0
M  END
> <VConfSearch Rank>
43

> <Conf_Id>
37

> <Delta U+W>
-0.345

> <U+W>
-53.504

> <U>
6.751

> <W>
-60.255

> <W(PB)>
-62.592

> <W(SA)>
2.336

> <Valence>
7.602

> <Coulomb>
-1.744

> <VdW>
0.894

> <VdW6>
-7.110

> <VdW12>
8.004

> <Bond>
0.131

> <Angle>
2.489

> <Pdih>
4.982

> <Idih>
0.001

> <Tether>
0.000

$$$$
VeraChem MOL file


 22 21  0  0  0  0  0  0  0  0999 V2000     
   16.5214   19.1406   20.1162 C   0  0  0  0  0  0  0  0  0  0  0  0
   16.7314   19.2551   18.9248 O   0  5  0  0  0  0  0  0  0  0  0  0
   15.5085   19.5315   20.6616 O   0  0  0  0  0  0  0  0  0  0  0  0
   17.5979   18.4900   20.9777 C   0  0  0  0  0  0  0  0  0  0  0  0
   18.1104   17.7347   20.3699 H   0  0  0  0  0  0  0  0  0  0  0  0
   17.1022   17.9618   21.8011 H   0  0  0  0  0  0  0  0  0  0  0  0
   18.6202   19.5104   21.5359 C   0  0  0  0  0  0  0  0  0  0  0  0
   19.0986   20.0394   20.6999 H   0  0  0  0  0  0  0  0  0  0  0  0
   18.0896   20.2670   22.1305 H   0  0  0  0  0  0  0  0  0  0  0  0
   19.6988   18.8272   22.4044 C   0  0  0  0  0  0  0  0  0  0  0  0
   20.2174   18.0689   21.8034 H   0  0  0  0  0  0  0  0  0  0  0  0
   19.2179   18.3012   23.2404 H   0  0  0  0  0  0  0  0  0  0  0  0
   20.7190   19.8495   22.9560 C   0  0  0  0  0  0  0  0  0  0  0  0
   21.2384   20.3411   22.1221 H   0  0  0  0  0  0  0  0  0  0  0  0
   20.1779   20.6394   23.4946 H   0  0  0  0  0  0  0  0  0  0  0  0
   21.7581   19.2245   23.9157 C   0  0  0  0  0  0  0  0  0  0  0  0
   21.2425   18.7372   24.7547 H   0  0  0  0  0  0  0  0  0  0  0  0
   22.3655   20.0302   24.3507 H   0  0  0  0  0  0  0  0  0  0  0  0
   22.6972   18.2121   23.2247 C   0  0  0  0  0  0  0  0  0  0  0  0
   23.2017   18.6688   22.3632 H   0  0  0  0  0  0  0  0  0  0  0  0
   22.1473   17.3299   22.8742 H   0  0  0  0  0  0  0  0  0  0  0  0
   23.4693   17.8658   23.9239 H   0  0  0  0  0  0  0  0  0  0  0  0
  1  2  1  0  0  0  0
  1  3  2  0  0  0  0
  1  4  1  0  0  0  0
  4  5  1  0  0  0  0
  4  6  1  0  0  0  0
  4  7  1  0  0  0  0
  7  8  1  0  0  0  0
  7  9  1  0  0  0  0
  7 10  1  0  0  0  0
 10 11  1  0  0  0  0
 10 12  1  0  0  0  0
 10 13  1  0  0  0  0
 13 14  1  0  0  0  0
 13 15  1  0  0  0  0
 13 16  1  0  0  0  0
 16 17  1  0  0  0  0
 16 18  1  0  0  0  0
 16 19  1  0  0  0  0
 19 20  1  0  0  0  0
 19 21  1  0  0  0  0
 19 22  1  0  0  0  0
M  END
> <VConfSearch Rank>
44

> <Conf_Id>
38

> <Delta U+W>
-0.439

> <U+W>
-53.598

> <U>
6.751

> <W>
-60.350

> <W(PB)>
-62.659

> <W(SA)>
2.309

> <Valence>
7.602

> <Coulomb>
-1.744

> <VdW>
0.893

> <VdW6>
-7.110

> <VdW12>
8.004

> <Bond>
0.131

> <Angle>
2.489

> <Pdih>
4.981

> <Idih>
0.001

> <Tether>
0.000

$$$$
VeraChem MOL file


 22 21  0  0  0  0  0  0  0  0999 V2000     
   16.6311   19.4997   24.0943 C   0  0  0  0  0  0  0  0  0  0  0  0
   15.5354   19.3963   23.5790 O   0  5  0  0  0  0  0  0  0  0  0  0
   16.8336   20.1044   25.1286 O   0  0  0  0  0  0  0  0  0  0  0  0
   17.8207   18.8546   23.3922 C   0  0  0  0  0  0  0  0  0  0  0  0
   17.4636   17.9564   22.8742 H   0  0  0  0  0  0  0  0  0  0  0  0
   18.5248   18.5266   24.1649 H   0  0  0  0  0  0  0  0  0  0  0  0
   18.5149   19.8110   22.3878 C   0  0  0  0  0  0  0  0  0  0  0  0
   17.7588   20.1950   21.6890 H   0  0  0  0  0  0  0  0  0  0  0  0
   18.9115   20.6836   22.9250 H   0  0  0  0  0  0  0  0  0  0  0  0
   19.6460   19.1404   21.5720 C   0  0  0  0  0  0  0  0  0  0  0  0
   19.9729   19.8482   20.7997 H   0  0  0  0  0  0  0  0  0  0  0  0
   19.2481   18.2637   21.0429 H   0  0  0  0  0  0  0  0  0  0  0  0
   20.8623   18.7227   22.4346 C   0  0  0  0  0  0  0  0  0  0  0  0
   21.2590   19.5991   22.9650 H   0  0  0  0  0  0  0  0  0  0  0  0
   20.5374   18.0125   23.2054 H   0  0  0  0  0  0  0  0  0  0  0  0
   21.9944   18.0565   21.6182 C   0  0  0  0  0  0  0  0  0  0  0  0
   21.5990   17.1859   21.0769 H   0  0  0  0  0  0  0  0  0  0  0  0
   22.7502   17.6703   22.3159 H   0  0  0  0  0  0  0  0  0  0  0  0
   22.6834   19.0178   20.6253 C   0  0  0  0  0  0  0  0  0  0  0  0
   21.9959   19.3371   19.8323 H   0  0  0  0  0  0  0  0  0  0  0  0
   23.5376   18.5242   20.1441 H   0  0  0  0  0  0  0  0  0  0  0  0
   23.0565   19.9129   21.1397 H   0  0  0  0  0  0  0  0  0  0  0  0
  1  2  1  0  0  0  0
  1  3  2  0  0  0  0
  1  4  1  0  0  0  0
  4  5  1  0  0  0  0
  4  6  1  0  0  0  0
  4  7  1  0  0  0  0
  7  8  1  0  0  0  0
  7  9  1  0  0  0  0
  7 10  1  0  0  0  0
 10 11  1  0  0  0  0
 10 12  1  0  0  0  0
 10 13  1  0  0  0  0
 13 14  1  0  0  0  0
 13 15  1  0  0  0  0
 13 16  1  0  0  0  0
 16 17  1  0  0  0  0
 16 18  1  0  0  0  0
 16 19  1  0  0  0  0
 19 20  1  0  0  0  0
 19 21  1  0  0  0  0
 19 22  1  0  0  0  0
M  END
> <VConfSearch Rank>
45

> <Conf_Id>
60

> <Delta U+W>
0.386

> <U+W>
-52.773

> <U>
7.689

> <W>
-60.463

> <W(PB)>
-62.772

> <W(SA)>
2.309

> <Valence>
8.197

> <Coulomb>
-1.561

> <VdW>
1.053

> <VdW6>
-7.737

> <VdW12>
8.790

> <Bond>
0.181

> <Angle>
2.780

> <Pdih>
5.235

> <Idih>
0.001

> <Tether>
0.000

$$$$
VeraChem MOL file


 22 21  0  0  0  0  0  0  0  0999 V2000     
   18.1236   19.9682   19.0425 C   0  0  0  0  0  0  0  0  0  0  0  0
   18.9223   20.4822   18.2846 O   0  5  0  0  0  0  0  0  0  0  0  0
   16.9198   20.0987   18.9409 O   0  0  0  0  0  0  0  0  0  0  0  0
   18.6622   19.1321   20.1980 C   0  0  0  0  0  0  0  0  0  0  0  0
   19.5816   18.6447   19.8553 H   0  0  0  0  0  0  0  0  0  0  0  0
   17.9343   18.3406   20.4130 H   0  0  0  0  0  0  0  0  0  0  0  0
   18.9299   19.9736   21.4731 C   0  0  0  0  0  0  0  0  0  0  0  0
   19.6961   20.7316   21.2592 H   0  0  0  0  0  0  0  0  0  0  0  0
   18.0136   20.5232   21.7295 H   0  0  0  0  0  0  0  0  0  0  0  0
   19.3575   19.1281   22.6967 C   0  0  0  0  0  0  0  0  0  0  0  0
   18.5934   18.3663   22.9026 H   0  0  0  0  0  0  0  0  0  0  0  0
   19.3831   19.7883   23.5729 H   0  0  0  0  0  0  0  0  0  0  0  0
   20.7387   18.4498   22.5234 C   0  0  0  0  0  0  0  0  0  0  0  0
   20.7136   17.7869   21.6493 H   0  0  0  0  0  0  0  0  0  0  0  0
   21.5024   19.2116   22.3156 H   0  0  0  0  0  0  0  0  0  0  0  0
   21.1677   17.6086   23.7484 C   0  0  0  0  0  0  0  0  0  0  0  0
   22.0826   17.0568   23.4925 H   0  0  0  0  0  0  0  0  0  0  0  0
   20.4007   16.8527   23.9667 H   0  0  0  0  0  0  0  0  0  0  0  0
   21.4379   18.4556   25.0110 C   0  0  0  0  0  0  0  0  0  0  0  0
   22.1772   19.2410   24.8066 H   0  0  0  0  0  0  0  0  0  0  0  0
   21.8303   17.8247   25.8190 H   0  0  0  0  0  0  0  0  0  0  0  0
   20.5210   18.9324   25.3790 H   0  0  0  0  0  0  0  0  0  0  0  0
  1  2  1  0  0  0  0
  1  3  2  0  0  0  0
  1  4  1  0  0  0  0
  4  5  1  0  0  0  0
  4  6  1  0  0  0  0
  4  7  1  0  0  0  0
  7  8  1  0  0  0  0
  7  9  1  0  0  0  0
  7 10  1  0  0  0  0
 10 11  1  0  0  0  0
 10 12  1  0  0  0  0
 10 13  1  0  0  0  0
 13 14  1  0  0  0  0
 13 15  1  0  0  0  0
 13 16  1  0  0  0  0
 16 17  1  0  0  0  0
 16 18  1  0  0  0  0
 16 19  1  0  0  0  0
 19 20  1  0  0  0  0
 19 21  1  0  0  0  0
 19 22  1  0  0  0  0
M  END
> <VConfSearch Rank>
46

> <Conf_Id>
28

> <Delta U+W>
0.351

> <U+W>
-52.808

> <U>
7.689

> <W>
-60.498

> <W(PB)>
-62.768

> <W(SA)>
2.270

> <Valence>
8.197

> <Coulomb>
-1.561

> <VdW>
1.053

> <VdW6>
-7.737

> <VdW12>
8.791

> <Bond>
0.181

> <Angle>
2.780

> <Pdih>
5.235

> <Idih>
0.001

> <Tether>
0.000

$$$$
VeraChem MOL file


 22 21  0  0  0  0  0  0  0  0999 V2000     
   19.3967   15.1913   22.3062 C   0  0  0  0  0  0  0  0  0  0  0  0
   18.4665   14.7588   21.6551 O   0  5  0  0  0  0  0  0  0  0  0  0
   20.4933   14.6691   22.3424 O   0  0  0  0  0  0  0  0  0  0  0  0
   19.1820   16.4711   23.1064 C   0  0  0  0  0  0  0  0  0  0  0  0
   19.8085   16.4204   24.0050 H   0  0  0  0  0  0  0  0  0  0  0  0
   18.1375   16.4929   23.4399 H   0  0  0  0  0  0  0  0  0  0  0  0
   19.5122   17.7493   22.2968 C   0  0  0  0  0  0  0  0  0  0  0  0
   20.5550   17.6946   21.9576 H   0  0  0  0  0  0  0  0  0  0  0  0
   18.8834   17.7808   21.3963 H   0  0  0  0  0  0  0  0  0  0  0  0
   19.2904   19.0309   23.1332 C   0  0  0  0  0  0  0  0  0  0  0  0
   19.9576   19.0241   24.0060 H   0  0  0  0  0  0  0  0  0  0  0  0
   18.2645   19.0275   23.5260 H   0  0  0  0  0  0  0  0  0  0  0  0
   19.5026   20.3357   22.3294 C   0  0  0  0  0  0  0  0  0  0  0  0
   18.8327   20.3447   21.4587 H   0  0  0  0  0  0  0  0  0  0  0  0
   19.2042   21.1848   22.9594 H   0  0  0  0  0  0  0  0  0  0  0  0
   20.9621   20.5440   21.8661 C   0  0  0  0  0  0  0  0  0  0  0  0
   21.2563   19.7463   21.1715 H   0  0  0  0  0  0  0  0  0  0  0  0
   21.6378   20.4825   22.7303 H   0  0  0  0  0  0  0  0  0  0  0  0
   21.1449   21.9075   21.1695 C   0  0  0  0  0  0  0  0  0  0  0  0
   20.8960   22.7330   21.8492 H   0  0  0  0  0  0  0  0  0  0  0  0
   20.4999   21.9855   20.2844 H   0  0  0  0  0  0  0  0  0  0  0  0
   22.1849   22.0390   20.8437 H   0  0  0  0  0  0  0  0  0  0  0  0
  1  2  1  0  0  0  0
  1  3  2  0  0  0  0
  1  4  1  0  0  0  0
  4  5  1  0  0  0  0
  4  6  1  0  0  0  0
  4  7  1  0  0  0  0
  7  8  1  0  0  0  0
  7  9  1  0  0  0  0
  7 10  1  0  0  0  0
 10 11  1  0  0  0  0
 10 12  1  0  0  0  0
 10 13  1  0  0  0  0
 13 14  1  0  0  0  0
 13 15  1  0  0  0  0
 13 16  1  0  0  0  0
 16 17  1  0  0  0  0
 16 18  1  0  0  0  0
 16 19  1  0  0  0  0
 19 20  1  0  0  0  0
 19 21  1  0  0  0  0
 19 22  1  0  0  0  0
M  END
> <VConfSearch Rank>
47

> <Conf_Id>
50

> <Delta U+W>
-0.486

> <U+W>
-53.646

> <U>
7.026

> <W>
-60.672

> <W(PB)>
-62.964

> <W(SA)>
2.292

> <Valence>
7.637

> <Coulomb>
-1.488

> <VdW>
0.877

> <VdW6>
-7.165

> <VdW12>
8.043

> <Bond>
0.134

> <Angle>
2.513

> <Pdih>
4.990

> <Idih>
0.001

> <Tether>
0.000

$$$$
VeraChem MOL file


 22 21  0  0  0  0  0  0  0  0999 V2000     
   20.9549   15.8281   20.7402 C   0  0  0  0  0  0  0  0  0  0  0  0
   21.8920   15.2807   21.2867 O   0  5  0  0  0  0  0  0  0  0  0  0
   20.8464   15.9324   19.5344 O   0  0  0  0  0  0  0  0  0  0  0  0
   19.8652   16.4357   21.6164 C   0  0  0  0  0  0  0  0  0  0  0  0
   19.7743   15.8224   22.5209 H   0  0  0  0  0  0  0  0  0  0  0  0
   18.9133   16.3613   21.0770 H   0  0  0  0  0  0  0  0  0  0  0  0
   20.1503   17.9099   21.9955 C   0  0  0  0  0  0  0  0  0  0  0  0
   21.1105   17.9686   22.5265 H   0  0  0  0  0  0  0  0  0  0  0  0
   20.2569   18.4985   21.0748 H   0  0  0  0  0  0  0  0  0  0  0  0
   19.0282   18.5017   22.8796 C   0  0  0  0  0  0  0  0  0  0  0  0
   18.8863   17.8552   23.7564 H   0  0  0  0  0  0  0  0  0  0  0  0
   18.0777   18.4914   22.3287 H   0  0  0  0  0  0  0  0  0  0  0  0
   19.3250   19.9377   23.3730 C   0  0  0  0  0  0  0  0  0  0  0  0
   18.5439   20.2280   24.0889 H   0  0  0  0  0  0  0  0  0  0  0  0
   20.2734   19.9477   23.9273 H   0  0  0  0  0  0  0  0  0  0  0  0
   19.3755   20.9825   22.2353 C   0  0  0  0  0  0  0  0  0  0  0  0
   18.4480   20.9361   21.6481 H   0  0  0  0  0  0  0  0  0  0  0  0
   20.2015   20.7550   21.5488 H   0  0  0  0  0  0  0  0  0  0  0  0
   19.5612   22.4103   22.7870 C   0  0  0  0  0  0  0  0  0  0  0  0
   20.4963   22.4924   23.3565 H   0  0  0  0  0  0  0  0  0  0  0  0
   18.7307   22.6872   23.4495 H   0  0  0  0  0  0  0  0  0  0  0  0
   19.5983   23.1398   21.9675 H   0  0  0  0  0  0  0  0  0  0  0  0
  1  2  1  0  0  0  0
  1  3  2  0  0  0  0
  1  4  1  0  0  0  0
  4  5  1  0  0  0  0
  4  6  1  0  0  0  0
  4  7  1  0  0  0  0
  7  8  1  0  0  0  0
  7  9  1  0  0  0  0
  7 10  1  0  0  0  0
 10 11  1  0  0  0  0
 10 12  1  0  0  0  0
 10 13  1  0  0  0  0
 13 14  1  0  0  0  0
 13 15  1  0  0  0  0
 13 16  1  0  0  0  0
 16 17  1  0  0  0  0
 16 18  1  0  0  0  0
 16 19  1  0  0  0  0
 19 20  1  0  0  0  0
 19 21  1  0  0  0  0
 19 22  1  0  0  0  0
M  END
> <VConfSearch Rank>
48

> <Conf_Id>
51

> <Delta U+W>
-0.517

> <U+W>
-53.677

> <U>
7.026

> <W>
-60.703

> <W(PB)>
-63.007

> <W(SA)>
2.304

> <Valence>
7.638

> <Coulomb>
-1.488

> <VdW>
0.877

> <VdW6>
-7.165

> <VdW12>
8.042

> <Bond>
0.134

> <Angle>
2.513

> <Pdih>
4.990

> <Idih>
0.001

> <Tether>
0.000

$$$$
VeraChem MOL file


 22 21  0  0  0  0  0  0  0  0999 V2000     
   18.0988   20.8822   24.4679 C   0  0  0  0  0  0  0  0  0  0  0  0
   18.7799   21.5653   25.2071 O   0  5  0  0  0  0  0  0  0  0  0  0
   17.3333   21.3416   23.6434 O   0  0  0  0  0  0  0  0  0  0  0  0
   18.1979   19.3648   24.5968 C   0  0  0  0  0  0  0  0  0  0  0  0
   17.3099   18.9154   24.1360 H   0  0  0  0  0  0  0  0  0  0  0  0
   18.1575   19.1232   25.6655 H   0  0  0  0  0  0  0  0  0  0  0  0
   19.4856   18.7619   23.9778 C   0  0  0  0  0  0  0  0  0  0  0  0
   20.3654   19.2416   24.4290 H   0  0  0  0  0  0  0  0  0  0  0  0
   19.5398   17.6956   24.2360 H   0  0  0  0  0  0  0  0  0  0  0  0
   19.5352   18.9170   22.4412 C   0  0  0  0  0  0  0  0  0  0  0  0
   19.4988   19.9826   22.1755 H   0  0  0  0  0  0  0  0  0  0  0  0
   18.6473   18.4474   21.9962 H   0  0  0  0  0  0  0  0  0  0  0  0
   20.8094   18.2826   21.8434 C   0  0  0  0  0  0  0  0  0  0  0  0
   21.6969   18.7527   22.2889 H   0  0  0  0  0  0  0  0  0  0  0  0
   20.8467   17.2163   22.1054 H   0  0  0  0  0  0  0  0  0  0  0  0
   20.8600   18.4378   20.3090 C   0  0  0  0  0  0  0  0  0  0  0  0
   20.8247   19.5035   20.0432 H   0  0  0  0  0  0  0  0  0  0  0  0
   19.9746   17.9672   19.8596 H   0  0  0  0  0  0  0  0  0  0  0  0
   22.1341   17.8037   19.7156 C   0  0  0  0  0  0  0  0  0  0  0  0
   23.0359   18.2778   20.1247 H   0  0  0  0  0  0  0  0  0  0  0  0
   22.1536   17.9232   18.6246 H   0  0  0  0  0  0  0  0  0  0  0  0
   22.1794   16.7299   19.9398 H   0  0  0  0  0  0  0  0  0  0  0  0
  1  2  1  0  0  0  0
  1  3  2  0  0  0  0
  1  4  1  0  0  0  0
  4  5  1  0  0  0  0
  4  6  1  0  0  0  0
  4  7  1  0  0  0  0
  7  8  1  0  0  0  0
  7  9  1  0  0  0  0
  7 10  1  0  0  0  0
 10 11  1  0  0  0  0
 10 12  1  0  0  0  0
 10 13  1  0  0  0  0
 13 14  1  0  0  0  0
 13 15  1  0  0  0  0
 13 16  1  0  0  0  0
 16 17  1  0  0  0  0
 16 18  1  0  0  0  0
 16 19  1  0  0  0  0
 19 20  1  0  0  0  0
 19 21  1  0  0  0  0
 19 22  1  0  0  0  0
M  END
> <VConfSearch Rank>
49

> <Conf_Id>
43

> <Delta U+W>
-0.129

> <U+W>
-53.289

> <U>
7.937

> <W>
-61.225

> <W(PB)>
-63.523

> <W(SA)>
2.297

> <Valence>
7.358

> <Coulomb>
-0.022

> <VdW>
0.601

> <VdW6>
-7.363

> <VdW12>
7.964

> <Bond>
0.121

> <Angle>
2.425

> <Pdih>
4.811

> <Idih>
0.000

> <Tether>
0.000

$$$$
VeraChem MOL file


 22 21  0  0  0  0  0  0  0  0999 V2000     
   20.9042   15.8363   22.6469 C   0  0  0  0  0  0  0  0  0  0  0  0
   20.4923   15.2628   23.6360 O   0  5  0  0  0  0  0  0  0  0  0  0
   22.0803   16.0641   22.4427 O   0  0  0  0  0  0  0  0  0  0  0  0
   19.8888   16.2774   21.5965 C   0  0  0  0  0  0  0  0  0  0  0  0
   19.2049   15.4371   21.4284 H   0  0  0  0  0  0  0  0  0  0  0  0
   20.4163   16.4514   20.6508 H   0  0  0  0  0  0  0  0  0  0  0  0
   19.0749   17.5358   21.9951 C   0  0  0  0  0  0  0  0  0  0  0  0
   18.2819   17.6975   21.2524 H   0  0  0  0  0  0  0  0  0  0  0  0
   18.5753   17.3564   22.9573 H   0  0  0  0  0  0  0  0  0  0  0  0
   19.9512   18.8051   22.0891 C   0  0  0  0  0  0  0  0  0  0  0  0
   20.4585   18.9726   21.1292 H   0  0  0  0  0  0  0  0  0  0  0  0
   20.7369   18.6573   22.8429 H   0  0  0  0  0  0  0  0  0  0  0  0
   19.1160   20.0505   22.4561 C   0  0  0  0  0  0  0  0  0  0  0  0
   18.3313   20.2020   21.7022 H   0  0  0  0  0  0  0  0  0  0  0  0
   18.6090   19.8822   23.4162 H   0  0  0  0  0  0  0  0  0  0  0  0
   19.9905   21.3183   22.5509 C   0  0  0  0  0  0  0  0  0  0  0  0
   20.4981   21.4908   21.5917 H   0  0  0  0  0  0  0  0  0  0  0  0
   20.7756   21.1711   23.3056 H   0  0  0  0  0  0  0  0  0  0  0  0
   19.1532   22.5598   22.9182 C   0  0  0  0  0  0  0  0  0  0  0  0
   18.3793   22.7492   22.1628 H   0  0  0  0  0  0  0  0  0  0  0  0
   19.7905   23.4514   22.9813 H   0  0  0  0  0  0  0  0  0  0  0  0
   18.6591   22.4270   23.8896 H   0  0  0  0  0  0  0  0  0  0  0  0
  1  2  1  0  0  0  0
  1  3  2  0  0  0  0
  1  4  1  0  0  0  0
  4  5  1  0  0  0  0
  4  6  1  0  0  0  0
  4  7  1  0  0  0  0
  7  8  1  0  0  0  0
  7  9  1  0  0  0  0
  7 10  1  0  0  0  0
 10 11  1  0  0  0  0
 10 12  1  0  0  0  0
 10 13  1  0  0  0  0
 13 14  1  0  0  0  0
 13 15  1  0  0  0  0
 13 16  1  0  0  0  0
 16 17  1  0  0  0  0
 16 18  1  0  0  0  0
 16 19  1  0  0  0  0
 19 20  1  0  0  0  0
 19 21  1  0  0  0  0
 19 22  1  0  0  0  0
M  END
> <VConfSearch Rank>
50

> <Conf_Id>
44

> <Delta U+W>
-0.155

> <U+W>
-53.314

> <U>
7.937

> <W>
-61.252

> <W(PB)>
-63.556

> <W(SA)>
2.304

> <Valence>
7.358

> <Coulomb>
-0.021

> <VdW>
0.600

> <VdW6>
-7.363

> <VdW12>
7.964

> <Bond>
0.121

> <Angle>
2.425

> <Pdih>
4.811

> <Idih>
0.001

> <Tether>
0.000

$$$$
VeraChem MOL file


 22 21  0  0  0  0  0  0  0  0999 V2000     
   16.9267   20.9006   23.3330 C   0  0  0  0  0  0  0  0  0  0  0  0
   16.9734   21.1600   24.5193 O   0  5  0  0  0  0  0  0  0  0  0  0
   15.9524   20.4209   22.7876 O   0  0  0  0  0  0  0  0  0  0  0  0
   18.1530   21.2128   22.4797 C   0  0  0  0  0  0  0  0  0  0  0  0
   18.4902   22.2209   22.7485 H   0  0  0  0  0  0  0  0  0  0  0  0
   17.8474   21.2506   21.4271 H   0  0  0  0  0  0  0  0  0  0  0  0
   19.3225   20.2104   22.6620 C   0  0  0  0  0  0  0  0  0  0  0  0
   20.2012   20.6022   22.1342 H   0  0  0  0  0  0  0  0  0  0  0  0
   19.5903   20.1535   23.7262 H   0  0  0  0  0  0  0  0  0  0  0  0
   18.9818   18.7975   22.1303 C   0  0  0  0  0  0  0  0  0  0  0  0
   18.7554   18.8501   21.0566 H   0  0  0  0  0  0  0  0  0  0  0  0
   18.0671   18.4384   22.6216 H   0  0  0  0  0  0  0  0  0  0  0  0
   20.1034   17.7599   22.3736 C   0  0  0  0  0  0  0  0  0  0  0  0
   20.3296   17.7078   23.4474 H   0  0  0  0  0  0  0  0  0  0  0  0
   19.7272   16.7683   22.0873 H   0  0  0  0  0  0  0  0  0  0  0  0
   21.3979   18.0521   21.5815 C   0  0  0  0  0  0  0  0  0  0  0  0
   21.8363   19.0035   21.9099 H   0  0  0  0  0  0  0  0  0  0  0  0
   21.1629   18.1584   20.5135 H   0  0  0  0  0  0  0  0  0  0  0  0
   22.4394   16.9303   21.7673 C   0  0  0  0  0  0  0  0  0  0  0  0
   22.7133   16.8204   22.8248 H   0  0  0  0  0  0  0  0  0  0  0  0
   23.3535   17.1538   21.2019 H   0  0  0  0  0  0  0  0  0  0  0  0
   22.0484   15.9678   21.4123 H   0  0  0  0  0  0  0  0  0  0  0  0
  1  2  1  0  0  0  0
  1  3  2  0  0  0  0
  1  4  1  0  0  0  0
  4  5  1  0  0  0  0
  4  6  1  0  0  0  0
  4  7  1  0  0  0  0
  7  8  1  0  0  0  0
  7  9  1  0  0  0  0
  7 10  1  0  0  0  0
 10 11  1  0  0  0  0
 10 12  1  0  0  0  0
 10 13  1  0  0  0  0
 13 14  1  0  0  0  0
 13 15  1  0  0  0  0
 13 16  1  0  0  0  0
 16 17  1  0  0  0  0
 16 18  1  0  0  0  0
 16 19  1  0  0  0  0
 19 20  1  0  0  0  0
 19 21  1  0  0  0  0
 19 22  1  0  0  0  0
M  END
> <VConfSearch Rank>
51

> <Conf_Id>
53

> <Delta U+W>
0.723

> <U+W>
-52.436

> <U>
8.587

> <W>
-61.022

> <W(PB)>
-63.285

> <W(SA)>
2.263

> <Valence>
7.933

> <Coulomb>
-0.124

> <VdW>
0.778

> <VdW6>
-7.981

> <VdW12>
8.759

> <Bond>
0.160

> <Angle>
2.698

> <Pdih>
5.074

> <Idih>
0.001

> <Tether>
0.000

$$$$
VeraChem MOL file


 22 21  0  0  0  0  0  0  0  0999 V2000     
   20.9913   15.9318   21.7641 C   0  0  0  0  0  0  0  0  0  0  0  0
   21.0746   15.7608   20.5639 O   0  5  0  0  0  0  0  0  0  0  0  0
   21.3797   15.1262   22.5867 O   0  0  0  0  0  0  0  0  0  0  0  0
   20.3867   17.2383   22.2656 C   0  0  0  0  0  0  0  0  0  0  0  0
   19.8925   17.0396   23.2240 H   0  0  0  0  0  0  0  0  0  0  0  0
   19.6130   17.5409   21.5510 H   0  0  0  0  0  0  0  0  0  0  0  0
   21.4395   18.3635   22.4280 C   0  0  0  0  0  0  0  0  0  0  0  0
   22.2701   17.9829   23.0385 H   0  0  0  0  0  0  0  0  0  0  0  0
   21.8661   18.6038   21.4444 H   0  0  0  0  0  0  0  0  0  0  0  0
   20.8967   19.6558   23.0884 C   0  0  0  0  0  0  0  0  0  0  0  0
   21.7393   20.3531   23.1919 H   0  0  0  0  0  0  0  0  0  0  0  0
   20.5581   19.4432   24.1117 H   0  0  0  0  0  0  0  0  0  0  0  0
   19.7766   20.3682   22.2886 C   0  0  0  0  0  0  0  0  0  0  0  0
   19.9078   21.4535   22.3972 H   0  0  0  0  0  0  0  0  0  0  0  0
   19.8833   20.1535   21.2164 H   0  0  0  0  0  0  0  0  0  0  0  0
   18.3531   20.0059   22.7715 C   0  0  0  0  0  0  0  0  0  0  0  0
   18.2436   20.2793   23.8300 H   0  0  0  0  0  0  0  0  0  0  0  0
   18.1874   18.9238   22.7083 H   0  0  0  0  0  0  0  0  0  0  0  0
   17.2736   20.7323   21.9443 C   0  0  0  0  0  0  0  0  0  0  0  0
   17.3872   21.8217   22.0197 H   0  0  0  0  0  0  0  0  0  0  0  0
   16.2698   20.4705   22.3034 H   0  0  0  0  0  0  0  0  0  0  0  0
   17.3379   20.4532   20.8844 H   0  0  0  0  0  0  0  0  0  0  0  0
  1  2  1  0  0  0  0
  1  3  2  0  0  0  0
  1  4  1  0  0  0  0
  4  5  1  0  0  0  0
  4  6  1  0  0  0  0
  4  7  1  0  0  0  0
  7  8  1  0  0  0  0
  7  9  1  0  0  0  0
  7 10  1  0  0  0  0
 10 11  1  0  0  0  0
 10 12  1  0  0  0  0
 10 13  1  0  0  0  0
 13 14  1  0  0  0  0
 13 15  1  0  0  0  0
 13 16  1  0  0  0  0
 16 17  1  0  0  0  0
 16 18  1  0  0  0  0
 16 19  1  0  0  0  0
 19 20  1  0  0  0  0
 19 21  1  0  0  0  0
 19 22  1  0  0  0  0
M  END
> <VConfSearch Rank>
52

> <Conf_Id>
5

> <Delta U+W>
2.167

> <U+W>
-50.993

> <U>
10.045

> <W>
-61.037

> <W(PB)>
-63.303

> <W(SA)>
2.266

> <Valence>
10.100

> <Coulomb>
-0.883

> <VdW>
0.828

> <VdW6>
-8.177

> <VdW12>
9.005

> <Bond>
0.182

> <Angle>
2.988

> <Pdih>
6.930

> <Idih>
0.001

> <Tether>
0.000

$$$$
VeraChem MOL file


 22 21  0  0  0  0  0  0  0  0999 V2000     
   19.8126   15.8218   21.0506 C   0  0  0  0  0  0  0  0  0  0  0  0
   19.8148   15.9034   19.8382 O   0  5  0  0  0  0  0  0  0  0  0  0
   19.7207   14.7710   21.6538 O   0  0  0  0  0  0  0  0  0  0  0  0
   19.9073   17.1104   21.8596 C   0  0  0  0  0  0  0  0  0  0  0  0
   20.5355   17.8096   21.2964 H   0  0  0  0  0  0  0  0  0  0  0  0
   20.4238   16.8853   22.8003 H   0  0  0  0  0  0  0  0  0  0  0  0
   18.5218   17.7422   22.1465 C   0  0  0  0  0  0  0  0  0  0  0  0
   18.0541   18.0341   21.1960 H   0  0  0  0  0  0  0  0  0  0  0  0
   17.8697   16.9754   22.5870 H   0  0  0  0  0  0  0  0  0  0  0  0
   18.5611   18.9614   23.1018 C   0  0  0  0  0  0  0  0  0  0  0  0
   18.9359   18.6560   24.0883 H   0  0  0  0  0  0  0  0  0  0  0  0
   17.5246   19.2873   23.2645 H   0  0  0  0  0  0  0  0  0  0  0  0
   19.3697   20.1722   22.5707 C   0  0  0  0  0  0  0  0  0  0  0  0
   19.3635   20.1775   21.4721 H   0  0  0  0  0  0  0  0  0  0  0  0
   18.8611   21.0944   22.8834 H   0  0  0  0  0  0  0  0  0  0  0  0
   20.8210   20.2205   23.1017 C   0  0  0  0  0  0  0  0  0  0  0  0
   21.3600   19.3029   22.8373 H   0  0  0  0  0  0  0  0  0  0  0  0
   20.8092   20.2729   24.1991 H   0  0  0  0  0  0  0  0  0  0  0  0
   21.5872   21.4363   22.5429 C   0  0  0  0  0  0  0  0  0  0  0  0
   21.6435   21.3946   21.4472 H   0  0  0  0  0  0  0  0  0  0  0  0
   22.6125   21.4607   22.9342 H   0  0  0  0  0  0  0  0  0  0  0  0
   21.0940   22.3756   22.8255 H   0  0  0  0  0  0  0  0  0  0  0  0
  1  2  1  0  0  0  0
  1  3  2  0  0  0  0
  1  4  1  0  0  0  0
  4  5  1  0  0  0  0
  4  6  1  0  0  0  0
  4  7  1  0  0  0  0
  7  8  1  0  0  0  0
  7  9  1  0  0  0  0
  7 10  1  0  0  0  0
 10 11  1  0  0  0  0
 10 12  1  0  0  0  0
 10 13  1  0  0  0  0
 13 14  1  0  0  0  0
 13 15  1  0  0  0  0
 13 16  1  0  0  0  0
 16 17  1  0  0  0  0
 16 18  1  0  0  0  0
 16 19  1  0  0  0  0
 19 20  1  0  0  0  0
 19 21  1  0  0  0  0
 19 22  1  0  0  0  0
M  END
> <VConfSearch Rank>
53

> <Conf_Id>
6

> <Delta U+W>
2.118

> <U+W>
-51.042

> <U>
10.045

> <W>
-61.086

> <W(PB)>
-63.356

> <W(SA)>
2.270

> <Valence>
10.100

> <Coulomb>
-0.883

> <VdW>
0.828

> <VdW6>
-8.177

> <VdW12>
9.004

> <Bond>
0.182

> <Angle>
2.988

> <Pdih>
6.930

> <Idih>
0.001

> <Tether>
0.000

$$$$
VeraChem MOL file


 22 21  0  0  0  0  0  0  0  0999 V2000     
   21.5458   20.5443   21.4897 C   0  0  0  0  0  0  0  0  0  0  0  0
   21.2820   21.6879   21.8060 O   0  5  0  0  0  0  0  0  0  0  0  0
   21.4260   20.1173   20.3581 O   0  0  0  0  0  0  0  0  0  0  0  0
   22.1253   19.6131   22.5530 C   0  0  0  0  0  0  0  0  0  0  0  0
   23.0831   20.0509   22.8569 H   0  0  0  0  0  0  0  0  0  0  0  0
   22.3551   18.6448   22.0921 H   0  0  0  0  0  0  0  0  0  0  0  0
   21.2384   19.4122   23.8140 C   0  0  0  0  0  0  0  0  0  0  0  0
   21.8828   19.0530   24.6277 H   0  0  0  0  0  0  0  0  0  0  0  0
   20.8395   20.3796   24.1494 H   0  0  0  0  0  0  0  0  0  0  0  0
   20.0849   18.3931   23.6413 C   0  0  0  0  0  0  0  0  0  0  0  0
   19.6318   18.2195   24.6269 H   0  0  0  0  0  0  0  0  0  0  0  0
   20.4916   17.4265   23.3141 H   0  0  0  0  0  0  0  0  0  0  0  0
   18.9810   18.8507   22.6613 C   0  0  0  0  0  0  0  0  0  0  0  0
   18.6462   19.8624   22.9288 H   0  0  0  0  0  0  0  0  0  0  0  0
   19.3854   18.9049   21.6427 H   0  0  0  0  0  0  0  0  0  0  0  0
   17.7751   17.8876   22.6703 C   0  0  0  0  0  0  0  0  0  0  0  0
   17.3534   17.8299   23.6834 H   0  0  0  0  0  0  0  0  0  0  0  0
   18.1087   16.8749   22.4047 H   0  0  0  0  0  0  0  0  0  0  0  0
   16.6790   18.3410   21.6853 C   0  0  0  0  0  0  0  0  0  0  0  0
   16.3050   19.3396   21.9467 H   0  0  0  0  0  0  0  0  0  0  0  0
   15.8301   17.6452   21.7035 H   0  0  0  0  0  0  0  0  0  0  0  0
   17.0654   18.3781   20.6582 H   0  0  0  0  0  0  0  0  0  0  0  0
  1  2  1  0  0  0  0
  1  3  2  0  0  0  0
  1  4  1  0  0  0  0
  4  5  1  0  0  0  0
  4  6  1  0  0  0  0
  4  7  1  0  0  0  0
  7  8  1  0  0  0  0
  7  9  1  0  0  0  0
  7 10  1  0  0  0  0
 10 11  1  0  0  0  0
 10 12  1  0  0  0  0
 10 13  1  0  0  0  0
 13 14  1  0  0  0  0
 13 15  1  0  0  0  0
 13 16  1  0  0  0  0
 16 17  1  0  0  0  0
 16 18  1  0  0  0  0
 16 19  1  0  0  0  0
 19 20  1  0  0  0  0
 19 21  1  0  0  0  0
 19 22  1  0  0  0  0
M  END
> <VConfSearch Rank>
54

> <Conf_Id>
8

> <Delta U+W>
1.886

> <U+W>
-51.274

> <U>
11.237

> <W>
-62.510

> <W(PB)>
-64.777

> <W(SA)>
2.267

> <Valence>
9.029

> <Coulomb>
1.667

> <VdW>
0.540

> <VdW6>
-8.825

> <VdW12>
9.365

> <Bond>
0.186

> <Angle>
3.195

> <Pdih>
5.642

> <Idih>
0.007

> <Tether>
0.000

$$$$
VeraChem MOL file


 22 21  0  0  0  0  0  0  0  0999 V2000     
   19.0606   21.1716   24.5014 C   0  0  0  0  0  0  0  0  0  0  0  0
   18.1217   20.5189   24.9128 O   0  5  0  0  0  0  0  0  0  0  0  0
   18.9954   22.3592   24.2515 O   0  0  0  0  0  0  0  0  0  0  0  0
   20.4036   20.4706   24.3163 C   0  0  0  0  0  0  0  0  0  0  0  0
   20.3720   19.5072   24.8374 H   0  0  0  0  0  0  0  0  0  0  0  0
   21.1597   21.0751   24.8306 H   0  0  0  0  0  0  0  0  0  0  0  0
   20.8221   20.2802   22.8324 C   0  0  0  0  0  0  0  0  0  0  0  0
   20.9202   21.2703   22.3661 H   0  0  0  0  0  0  0  0  0  0  0  0
   21.8200   19.8230   22.7952 H   0  0  0  0  0  0  0  0  0  0  0  0
   19.8400   19.4296   21.9894 C   0  0  0  0  0  0  0  0  0  0  0  0
   20.1869   19.4449   20.9485 H   0  0  0  0  0  0  0  0  0  0  0  0
   18.8466   19.8987   21.9917 H   0  0  0  0  0  0  0  0  0  0  0  0
   19.7229   17.9634   22.4730 C   0  0  0  0  0  0  0  0  0  0  0  0
   20.7170   17.4967   22.4908 H   0  0  0  0  0  0  0  0  0  0  0  0
   19.3517   17.9512   23.5059 H   0  0  0  0  0  0  0  0  0  0  0  0
   18.7642   17.1076   21.6124 C   0  0  0  0  0  0  0  0  0  0  0  0
   17.7729   17.5806   21.5803 H   0  0  0  0  0  0  0  0  0  0  0  0
   18.6270   16.1339   22.1027 H   0  0  0  0  0  0  0  0  0  0  0  0
   19.2753   16.8696   20.1747 C   0  0  0  0  0  0  0  0  0  0  0  0
   19.3133   17.8043   19.6018 H   0  0  0  0  0  0  0  0  0  0  0  0
   18.6088   16.1804   19.6402 H   0  0  0  0  0  0  0  0  0  0  0  0
   20.2806   16.4288   20.1830 H   0  0  0  0  0  0  0  0  0  0  0  0
  1  2  1  0  0  0  0
  1  3  2  0  0  0  0
  1  4  1  0  0  0  0
  4  5  1  0  0  0  0
  4  6  1  0  0  0  0
  4  7  1  0  0  0  0
  7  8  1  0  0  0  0
  7  9  1  0  0  0  0
  7 10  1  0  0  0  0
 10 11  1  0  0  0  0
 10 12  1  0  0  0  0
 10 13  1  0  0  0  0
 13 14  1  0  0  0  0
 13 15  1  0  0  0  0
 13 16  1  0  0  0  0
 16 17  1  0  0  0  0
 16 18  1  0  0  0  0
 16 19  1  0  0  0  0
 19 20  1  0  0  0  0
 19 21  1  0  0  0  0
 19 22  1  0  0  0  0
M  END
> <VConfSearch Rank>
55

> <Conf_Id>
93

> <Delta U+W>
1.836

> <U+W>
-51.323

> <U>
10.427

> <W>
-61.751

> <W(PB)>
-63.980

> <W(SA)>
2.230

> <Valence>
8.446

> <Coulomb>
1.306

> <VdW>
0.676

> <VdW6>
-8.928

> <VdW12>
9.604

> <Bond>
0.209

> <Angle>
3.066

> <Pdih>
5.170

> <Idih>
0.001

> <Tether>
0.000

$$$$
VeraChem MOL file


 22 21  0  0  0  0  0  0  0  0999 V2000     
   20.8536   18.1416   19.7476 C   0  0  0  0  0  0  0  0  0  0  0  0
   20.6846   18.6861   18.6742 O   0  5  0  0  0  0  0  0  0  0  0  0
   20.4644   17.0183   19.9999 O   0  0  0  0  0  0  0  0  0  0  0  0
   21.6228   18.9003   20.8255 C   0  0  0  0  0  0  0  0  0  0  0  0
   22.5458   19.2721   20.3656 H   0  0  0  0  0  0  0  0  0  0  0  0
   21.9291   18.1918   21.6033 H   0  0  0  0  0  0  0  0  0  0  0  0
   20.8418   20.0925   21.4436 C   0  0  0  0  0  0  0  0  0  0  0  0
   21.4882   20.6123   22.1636 H   0  0  0  0  0  0  0  0  0  0  0  0
   20.6225   20.8180   20.6482 H   0  0  0  0  0  0  0  0  0  0  0  0
   19.5144   19.7024   22.1396 C   0  0  0  0  0  0  0  0  0  0  0  0
   18.8466   19.2132   21.4173 H   0  0  0  0  0  0  0  0  0  0  0  0
   19.0107   20.6266   22.4497 H   0  0  0  0  0  0  0  0  0  0  0  0
   19.7105   18.7835   23.3703 C   0  0  0  0  0  0  0  0  0  0  0  0
   20.1916   17.8496   23.0520 H   0  0  0  0  0  0  0  0  0  0  0  0
   20.3934   19.2607   24.0862 H   0  0  0  0  0  0  0  0  0  0  0  0
   18.3865   18.4187   24.0816 C   0  0  0  0  0  0  0  0  0  0  0  0
   18.5966   17.6571   24.8451 H   0  0  0  0  0  0  0  0  0  0  0  0
   17.6956   17.9553   23.3637 H   0  0  0  0  0  0  0  0  0  0  0  0
   17.7012   19.6242   24.7611 C   0  0  0  0  0  0  0  0  0  0  0  0
   17.3610   20.3615   24.0234 H   0  0  0  0  0  0  0  0  0  0  0  0
   18.3863   20.1242   25.4581 H   0  0  0  0  0  0  0  0  0  0  0  0
   16.8220   19.2948   25.3297 H   0  0  0  0  0  0  0  0  0  0  0  0
  1  2  1  0  0  0  0
  1  3  2  0  0  0  0
  1  4  1  0  0  0  0
  4  5  1  0  0  0  0
  4  6  1  0  0  0  0
  4  7  1  0  0  0  0
  7  8  1  0  0  0  0
  7  9  1  0  0  0  0
  7 10  1  0  0  0  0
 10 11  1  0  0  0  0
 10 12  1  0  0  0  0
 10 13  1  0  0  0  0
 13 14  1  0  0  0  0
 13 15  1  0  0  0  0
 13 16  1  0  0  0  0
 16 17  1  0  0  0  0
 16 18  1  0  0  0  0
 16 19  1  0  0  0  0
 19 20  1  0  0  0  0
 19 21  1  0  0  0  0
 19 22  1  0  0  0  0
M  END
> <VConfSearch Rank>
56

> <Conf_Id>
70

> <Delta U+W>
1.803

> <U+W>
-51.356

> <U>
10.428

> <W>
-61.784

> <W(PB)>
-64.014

> <W(SA)>
2.230

> <Valence>
8.445

> <Coulomb>
1.306

> <VdW>
0.676

> <VdW6>
-8.929

> <VdW12>
9.605

> <Bond>
0.209

> <Angle>
3.066

> <Pdih>
5.170

> <Idih>
0.001

> <Tether>
0.000

$$$$
VeraChem MOL file


 22 21  0  0  0  0  0  0  0  0999 V2000     
   21.5227   16.3381   23.1084 C   0  0  0  0  0  0  0  0  0  0  0  0
   22.0164   16.0291   22.0417 O   0  5  0  0  0  0  0  0  0  0  0  0
   20.8477   15.5835   23.7805 O   0  0  0  0  0  0  0  0  0  0  0  0
   21.7836   17.7442   23.6410 C   0  0  0  0  0  0  0  0  0  0  0  0
   22.8509   17.9544   23.5046 H   0  0  0  0  0  0  0  0  0  0  0  0
   21.5946   17.7501   24.7214 H   0  0  0  0  0  0  0  0  0  0  0  0
   20.9453   18.8471   22.9439 C   0  0  0  0  0  0  0  0  0  0  0  0
   21.2885   19.8303   23.2930 H   0  0  0  0  0  0  0  0  0  0  0  0
   21.1362   18.8089   21.8632 H   0  0  0  0  0  0  0  0  0  0  0  0
   19.4302   18.7054   23.2249 C   0  0  0  0  0  0  0  0  0  0  0  0
   19.2717   18.6579   24.3110 H   0  0  0  0  0  0  0  0  0  0  0  0
   19.0623   17.7538   22.8170 H   0  0  0  0  0  0  0  0  0  0  0  0
   18.5865   19.8706   22.6558 C   0  0  0  0  0  0  0  0  0  0  0  0
   17.5514   19.7534   23.0048 H   0  0  0  0  0  0  0  0  0  0  0  0
   18.9474   20.8226   23.0683 H   0  0  0  0  0  0  0  0  0  0  0  0
   18.5905   19.9365   21.1118 C   0  0  0  0  0  0  0  0  0  0  0  0
   18.2801   18.9668   20.6988 H   0  0  0  0  0  0  0  0  0  0  0  0
   19.6066   20.1310   20.7441 H   0  0  0  0  0  0  0  0  0  0  0  0
   17.6487   21.0406   20.5905 C   0  0  0  0  0  0  0  0  0  0  0  0
   16.6138   20.8569   20.9078 H   0  0  0  0  0  0  0  0  0  0  0  0
   17.6651   21.0767   19.4935 H   0  0  0  0  0  0  0  0  0  0  0  0
   17.9531   22.0260   20.9668 H   0  0  0  0  0  0  0  0  0  0  0  0
  1  2  1  0  0  0  0
  1  3  2  0  0  0  0
  1  4  1  0  0  0  0
  4  5  1  0  0  0  0
  4  6  1  0  0  0  0
  4  7  1  0  0  0  0
  7  8  1  0  0  0  0
  7  9  1  0  0  0  0
  7 10  1  0  0  0  0
 10 11  1  0  0  0  0
 10 12  1  0  0  0  0
 10 13  1  0  0  0  0
 13 14  1  0  0  0  0
 13 15  1  0  0  0  0
 13 16  1  0  0  0  0
 16 17  1  0  0  0  0
 16 18  1  0  0  0  0
 16 19  1  0  0  0  0
 19 20  1  0  0  0  0
 19 21  1  0  0  0  0
 19 22  1  0  0  0  0
M  END
> <VConfSearch Rank>
57

> <Conf_Id>
85

> <Delta U+W>
0.707

> <U+W>
-52.452

> <U>
8.925

> <W>
-61.378

> <W(PB)>
-63.661

> <W(SA)>
2.283

> <Valence>
7.881

> <Coulomb>
0.349

> <VdW>
0.695

> <VdW6>
-8.049

> <VdW12>
8.743

> <Bond>
0.156

> <Angle>
2.660

> <Pdih>
5.064

> <Idih>
0.001

> <Tether>
0.000

$$$$
VeraChem MOL file


 22 21  0  0  0  0  0  0  0  0999 V2000     
   22.4395   20.7643   23.3495 C   0  0  0  0  0  0  0  0  0  0  0  0
   22.8130   21.5236   22.4772 O   0  5  0  0  0  0  0  0  0  0  0  0
   22.2515   21.1040   24.5011 O   0  0  0  0  0  0  0  0  0  0  0  0
   22.2163   19.2988   22.9862 C   0  0  0  0  0  0  0  0  0  0  0  0
   22.6978   18.6928   23.7627 H   0  0  0  0  0  0  0  0  0  0  0  0
   22.7408   19.0862   22.0468 H   0  0  0  0  0  0  0  0  0  0  0  0
   20.7230   18.8963   22.8686 C   0  0  0  0  0  0  0  0  0  0  0  0
   20.6666   17.8056   22.7631 H   0  0  0  0  0  0  0  0  0  0  0  0
   20.2000   19.1579   23.7989 H   0  0  0  0  0  0  0  0  0  0  0  0
   20.0199   19.5635   21.6638 C   0  0  0  0  0  0  0  0  0  0  0  0
   20.4959   19.2284   20.7323 H   0  0  0  0  0  0  0  0  0  0  0  0
   20.1736   20.6501   21.7129 H   0  0  0  0  0  0  0  0  0  0  0  0
   18.4956   19.2960   21.5888 C   0  0  0  0  0  0  0  0  0  0  0  0
   17.9965   19.7110   22.4751 H   0  0  0  0  0  0  0  0  0  0  0  0
   18.1033   19.8627   20.7333 H   0  0  0  0  0  0  0  0  0  0  0  0
   18.1059   17.8086   21.4004 C   0  0  0  0  0  0  0  0  0  0  0  0
   18.9086   17.2669   20.8813 H   0  0  0  0  0  0  0  0  0  0  0  0
   17.2275   17.7564   20.7424 H   0  0  0  0  0  0  0  0  0  0  0  0
   17.7511   17.0994   22.7264 C   0  0  0  0  0  0  0  0  0  0  0  0
   18.5926   17.1011   23.4285 H   0  0  0  0  0  0  0  0  0  0  0  0
   17.4721   16.0543   22.5401 H   0  0  0  0  0  0  0  0  0  0  0  0
   16.9008   17.5914   23.2164 H   0  0  0  0  0  0  0  0  0  0  0  0
  1  2  1  0  0  0  0
  1  3  2  0  0  0  0
  1  4  1  0  0  0  0
  4  5  1  0  0  0  0
  4  6  1  0  0  0  0
  4  7  1  0  0  0  0
  7  8  1  0  0  0  0
  7  9  1  0  0  0  0
  7 10  1  0  0  0  0
 10 11  1  0  0  0  0
 10 12  1  0  0  0  0
 10 13  1  0  0  0  0
 13 14  1  0  0  0  0
 13 15  1  0  0  0  0
 13 16  1  0  0  0  0
 16 17  1  0  0  0  0
 16 18  1  0  0  0  0
 16 19  1  0  0  0  0
 19 20  1  0  0  0  0
 19 21  1  0  0  0  0
 19 22  1  0  0  0  0
M  END
> <VConfSearch Rank>
58

> <Conf_Id>
82

> <Delta U+W>
3.438

> <U+W>
-49.721

> <U>
11.773

> <W>
-61.495

> <W(PB)>
-63.749

> <W(SA)>
2.254

> <Valence>
10.419

> <Coulomb>
0.565

> <VdW>
0.789

> <VdW6>
-8.847

> <VdW12>
9.636

> <Bond>
0.200

> <Angle>
3.187

> <Pdih>
7.032

> <Idih>
0.001

> <Tether>
0.000

$$$$
VeraChem MOL file


 22 21  0  0  0  0  0  0  0  0999 V2000     
   22.2655   20.7870   23.8333 C   0  0  0  0  0  0  0  0  0  0  0  0
   21.7148   21.7171   24.3888 O   0  5  0  0  0  0  0  0  0  0  0  0
   23.1445   20.1229   24.3464 O   0  0  0  0  0  0  0  0  0  0  0  0
   21.8448   20.4510   22.4052 C   0  0  0  0  0  0  0  0  0  0  0  0
   22.6353   19.8510   21.9384 H   0  0  0  0  0  0  0  0  0  0  0  0
   21.7928   21.3947   21.8495 H   0  0  0  0  0  0  0  0  0  0  0  0
   20.4832   19.7153   22.3029 C   0  0  0  0  0  0  0  0  0  0  0  0
   19.7103   20.3048   22.8151 H   0  0  0  0  0  0  0  0  0  0  0  0
   20.1985   19.6612   21.2446 H   0  0  0  0  0  0  0  0  0  0  0  0
   20.5328   18.2868   22.8927 C   0  0  0  0  0  0  0  0  0  0  0  0
   20.9248   18.3331   23.9179 H   0  0  0  0  0  0  0  0  0  0  0  0
   21.2464   17.6799   22.3190 H   0  0  0  0  0  0  0  0  0  0  0  0
   19.1612   17.5675   22.9341 C   0  0  0  0  0  0  0  0  0  0  0  0
   19.3138   16.5944   23.4206 H   0  0  0  0  0  0  0  0  0  0  0  0
   18.4664   18.1190   23.5822 H   0  0  0  0  0  0  0  0  0  0  0  0
   18.5174   17.3168   21.5475 C   0  0  0  0  0  0  0  0  0  0  0  0
   18.0054   16.3449   21.5687 H   0  0  0  0  0  0  0  0  0  0  0  0
   19.2948   17.2353   20.7753 H   0  0  0  0  0  0  0  0  0  0  0  0
   17.4813   18.3931   21.1536 C   0  0  0  0  0  0  0  0  0  0  0  0
   16.6615   18.4305   21.8828 H   0  0  0  0  0  0  0  0  0  0  0  0
   17.0466   18.1662   20.1716 H   0  0  0  0  0  0  0  0  0  0  0  0
   17.9300   19.3913   21.0984 H   0  0  0  0  0  0  0  0  0  0  0  0
  1  2  1  0  0  0  0
  1  3  2  0  0  0  0
  1  4  1  0  0  0  0
  4  5  1  0  0  0  0
  4  6  1  0  0  0  0
  4  7  1  0  0  0  0
  7  8  1  0  0  0  0
  7  9  1  0  0  0  0
  7 10  1  0  0  0  0
 10 11  1  0  0  0  0
 10 12  1  0  0  0  0
 10 13  1  0  0  0  0
 13 14  1  0  0  0  0
 13 15  1  0  0  0  0
 13 16  1  0  0  0  0
 16 17  1  0  0  0  0
 16 18  1  0  0  0  0
 16 19  1  0  0  0  0
 19 20  1  0  0  0  0
 19 21  1  0  0  0  0
 19 22  1  0  0  0  0
M  END
> <VConfSearch Rank>
59

> <Conf_Id>
94

> <Delta U+W>
3.471

> <U+W>
-49.688

> <U>
11.773

> <W>
-61.461

> <W(PB)>
-63.710

> <W(SA)>
2.248

> <Valence>
10.419

> <Coulomb>
0.566

> <VdW>
0.789

> <VdW6>
-8.847

> <VdW12>
9.636

> <Bond>
0.200

> <Angle>
3.187

> <Pdih>
7.032

> <Idih>
0.001

> <Tether>
0.000

$$$$
VeraChem MOL file


 22 21  0  0  0  0  0  0  0  0999 V2000     
   17.0198   18.8450   20.5883 C   0  0  0  0  0  0  0  0  0  0  0  0
   15.8471   18.8817   20.9046 O   0  5  0  0  0  0  0  0  0  0  0  0
   17.4384   18.2299   19.6276 O   0  0  0  0  0  0  0  0  0  0  0  0
   18.0231   19.5965   21.4559 C   0  0  0  0  0  0  0  0  0  0  0  0
   17.5252   20.4853   21.8612 H   0  0  0  0  0  0  0  0  0  0  0  0
   18.8326   19.9449   20.8045 H   0  0  0  0  0  0  0  0  0  0  0  0
   18.5886   18.7275   22.6090 C   0  0  0  0  0  0  0  0  0  0  0  0
   17.7490   18.3271   23.1937 H   0  0  0  0  0  0  0  0  0  0  0  0
   19.1103   17.8564   22.1910 H   0  0  0  0  0  0  0  0  0  0  0  0
   19.5296   19.5041   23.5640 C   0  0  0  0  0  0  0  0  0  0  0  0
   19.8418   18.8350   24.3766 H   0  0  0  0  0  0  0  0  0  0  0  0
   18.9593   20.3100   24.0455 H   0  0  0  0  0  0  0  0  0  0  0  0
   20.7874   20.1193   22.8958 C   0  0  0  0  0  0  0  0  0  0  0  0
   20.4790   20.9080   22.1972 H   0  0  0  0  0  0  0  0  0  0  0  0
   21.3825   20.6243   23.6687 H   0  0  0  0  0  0  0  0  0  0  0  0
   21.6948   19.1125   22.1469 C   0  0  0  0  0  0  0  0  0  0  0  0
   22.5318   19.6633   21.6962 H   0  0  0  0  0  0  0  0  0  0  0  0
   21.1459   18.6573   21.3117 H   0  0  0  0  0  0  0  0  0  0  0  0
   22.2633   18.0063   23.0618 C   0  0  0  0  0  0  0  0  0  0  0  0
   22.8029   18.4400   23.9136 H   0  0  0  0  0  0  0  0  0  0  0  0
   22.9635   17.3698   22.5056 H   0  0  0  0  0  0  0  0  0  0  0  0
   21.4650   17.3621   23.4512 H   0  0  0  0  0  0  0  0  0  0  0  0
  1  2  1  0  0  0  0
  1  3  2  0  0  0  0
  1  4  1  0  0  0  0
  4  5  1  0  0  0  0
  4  6  1  0  0  0  0
  4  7  1  0  0  0  0
  7  8  1  0  0  0  0
  7  9  1  0  0  0  0
  7 10  1  0  0  0  0
 10 11  1  0  0  0  0
 10 12  1  0  0  0  0
 10 13  1  0  0  0  0
 13 14  1  0  0  0  0
 13 15  1  0  0  0  0
 13 16  1  0  0  0  0
 16 17  1  0  0  0  0
 16 18  1  0  0  0  0
 16 19  1  0  0  0  0
 19 20  1  0  0  0  0
 19 21  1  0  0  0  0
 19 22  1  0  0  0  0
M  END
> <VConfSearch Rank>
60

> <Conf_Id>
56

> <Delta U+W>
0.853

> <U+W>
-52.307

> <U>
8.874

> <W>
-61.181

> <W(PB)>
-63.413

> <W(SA)>
2.232

> <Valence>
8.479

> <Coulomb>
-0.357

> <VdW>
0.753

> <VdW6>
-9.081

> <VdW12>
9.833

> <Bond>
0.221

> <Angle>
3.208

> <Pdih>
5.050

> <Idih>
0.000

> <Tether>
0.000

$$$$
VeraChem MOL file


 22 21  0  0  0  0  0  0  0  0999 V2000     
   18.4968   17.5449   18.5941 C   0  0  0  0  0  0  0  0  0  0  0  0
   17.3288   17.6947   18.8971 O   0  5  0  0  0  0  0  0  0  0  0  0
   18.8520   17.1036   17.5194 O   0  0  0  0  0  0  0  0  0  0  0  0
   19.5939   17.9202   19.5917 C   0  0  0  0  0  0  0  0  0  0  0  0
   20.2411   18.6583   19.1035 H   0  0  0  0  0  0  0  0  0  0  0  0
   20.2013   17.0236   19.7623 H   0  0  0  0  0  0  0  0  0  0  0  0
   19.0917   18.4797   20.9493 C   0  0  0  0  0  0  0  0  0  0  0  0
   18.4787   19.3740   20.7707 H   0  0  0  0  0  0  0  0  0  0  0  0
   18.4390   17.7378   21.4302 H   0  0  0  0  0  0  0  0  0  0  0  0
   20.2618   18.8318   21.8934 C   0  0  0  0  0  0  0  0  0  0  0  0
   20.9128   19.5735   21.4106 H   0  0  0  0  0  0  0  0  0  0  0  0
   20.8731   17.9362   22.0704 H   0  0  0  0  0  0  0  0  0  0  0  0
   19.7600   19.3880   23.2433 C   0  0  0  0  0  0  0  0  0  0  0  0
   19.1486   20.2836   23.0669 H   0  0  0  0  0  0  0  0  0  0  0  0
   19.1090   18.6466   23.7266 H   0  0  0  0  0  0  0  0  0  0  0  0
   20.9288   19.7402   24.1873 C   0  0  0  0  0  0  0  0  0  0  0  0
   21.5812   20.4832   23.7080 H   0  0  0  0  0  0  0  0  0  0  0  0
   21.5417   18.8461   24.3677 H   0  0  0  0  0  0  0  0  0  0  0  0
   20.4236   20.2951   25.5342 C   0  0  0  0  0  0  0  0  0  0  0  0
   19.8330   21.2087   25.3858 H   0  0  0  0  0  0  0  0  0  0  0  0
   21.2672   20.5401   26.1926 H   0  0  0  0  0  0  0  0  0  0  0  0
   19.7932   19.5593   26.0505 H   0  0  0  0  0  0  0  0  0  0  0  0
  1  2  1  0  0  0  0
  1  3  2  0  0  0  0
  1  4  1  0  0  0  0
  4  5  1  0  0  0  0
  4  6  1  0  0  0  0
  4  7  1  0  0  0  0
  7  8  1  0  0  0  0
  7  9  1  0  0  0  0
  7 10  1  0  0  0  0
 10 11  1  0  0  0  0
 10 12  1  0  0  0  0
 10 13  1  0  0  0  0
 13 14  1  0  0  0  0
 13 15  1  0  0  0  0
 13 16  1  0  0  0  0
 16 17  1  0  0  0  0
 16 18  1  0  0  0  0
 16 19  1  0  0  0  0
 19 20  1  0  0  0  0
 19 21  1  0  0  0  0
 19 22  1  0  0  0  0
M  END
> <VConfSearch Rank>
61

> <Conf_Id>
0

> <Delta U+W>
0.000

> <U+W>
-53.159

> <U>
6.763

> <W>
-59.922

> <W(PB)>
-62.256

> <W(SA)>
2.334

> <Valence>
7.600

> <Coulomb>
-2.139

> <VdW>
1.302

> <VdW6>
-6.786

> <VdW12>
8.088

> <Bond>
0.134

> <Angle>
2.720

> <Pdih>
4.746

> <Idih>
0.000

> <Tether>
0.000

$$$$
VeraChem MOL file


 22 21  0  0  0  0  0  0  0  0999 V2000     
   17.2747   17.9845   19.1965 C   0  0  0  0  0  0  0  0  0  0  0  0
   16.4706   18.8501   18.9126 O   0  5  0  0  0  0  0  0  0  0  0  0
   17.0393   16.7951   19.1179 O   0  0  0  0  0  0  0  0  0  0  0  0
   18.6476   18.4149   19.7007 C   0  0  0  0  0  0  0  0  0  0  0  0
   18.9109   19.3588   19.2083 H   0  0  0  0  0  0  0  0  0  0  0  0
   19.3798   17.6652   19.3772 H   0  0  0  0  0  0  0  0  0  0  0  0
   18.6983   18.5823   21.2393 C   0  0  0  0  0  0  0  0  0  0  0  0
   17.9508   19.3262   21.5482 H   0  0  0  0  0  0  0  0  0  0  0  0
   18.4196   17.6327   21.7170 H   0  0  0  0  0  0  0  0  0  0  0  0
   20.0978   19.0181   21.7244 C   0  0  0  0  0  0  0  0  0  0  0  0
   20.3738   19.9669   21.2441 H   0  0  0  0  0  0  0  0  0  0  0  0
   20.8428   18.2730   21.4129 H   0  0  0  0  0  0  0  0  0  0  0  0
   20.1452   19.1842   23.2585 C   0  0  0  0  0  0  0  0  0  0  0  0
   19.4004   19.9292   23.5704 H   0  0  0  0  0  0  0  0  0  0  0  0
   19.8692   18.2356   23.7392 H   0  0  0  0  0  0  0  0  0  0  0  0
   21.5436   19.6197   23.7441 C   0  0  0  0  0  0  0  0  0  0  0  0
   21.8224   20.5695   23.2668 H   0  0  0  0  0  0  0  0  0  0  0  0
   22.2913   18.8758   23.4357 H   0  0  0  0  0  0  0  0  0  0  0  0
   21.5869   19.7845   25.2765 C   0  0  0  0  0  0  0  0  0  0  0  0
   21.3426   18.8400   25.7801 H   0  0  0  0  0  0  0  0  0  0  0  0
   20.8700   20.5463   25.6100 H   0  0  0  0  0  0  0  0  0  0  0  0
   22.5877   20.0943   25.6042 H   0  0  0  0  0  0  0  0  0  0  0  0
  1  2  1  0  0  0  0
  1  3  2  0  0  0  0
  1  4  1  0  0  0  0
  4  5  1  0  0  0  0
  4  6  1  0  0  0  0
  4  7  1  0  0  0  0
  7  8  1  0  0  0  0
  7  9  1  0  0  0  0
  7 10  1  0  0  0  0
 10 11  1  0  0  0  0
 10 12  1  0  0  0  0
 10 13  1  0  0  0  0
 13 14  1  0  0  0  0
 13 15  1  0  0  0  0
 13 16  1  0  0  0  0
 16 17  1  0  0  0  0
 16 18  1  0  0  0  0
 16 19  1  0  0  0  0
 19 20  1  0  0  0  0
 19 21  1  0  0  0  0
 19 22  1  0  0  0  0
M  END
> <VConfSearch Rank>
62

> <Conf_Id>
10

> <Delta U+W>
-1.291

> <U+W>
-54.451

> <U>
5.779

> <W>
-60.230

> <W(PB)>
-62.557

> <W(SA)>
2.328

> <Valence>
7.101

> <Coulomb>
-2.079

> <VdW>
0.757

> <VdW6>
-6.496

> <VdW12>
7.253

> <Bond>
0.100

> <Angle>
2.262

> <Pdih>
4.738

> <Idih>
0.001

> <Tether>
0.000

$$$$
VeraChem MOL file


 22 21  0  0  0  0  0  0  0  0999 V2000     
   16.0199   18.6860   22.6137 C   0  0  0  0  0  0  0  0  0  0  0  0
   15.4961   19.7666   22.7993 O   0  5  0  0  0  0  0  0  0  0  0  0
   15.4514   17.7413   22.1031 O   0  0  0  0  0  0  0  0  0  0  0  0
   17.4777   18.5125   23.0248 C   0  0  0  0  0  0  0  0  0  0  0  0
   17.6230   17.4702   23.3332 H   0  0  0  0  0  0  0  0  0  0  0  0
   17.6602   19.1397   23.9057 H   0  0  0  0  0  0  0  0  0  0  0  0
   18.4698   18.8783   21.8934 C   0  0  0  0  0  0  0  0  0  0  0  0
   18.2649   18.2510   21.0148 H   0  0  0  0  0  0  0  0  0  0  0  0
   18.3031   19.9205   21.5874 H   0  0  0  0  0  0  0  0  0  0  0  0
   19.9381   18.6944   22.3346 C   0  0  0  0  0  0  0  0  0  0  0  0
   20.1023   17.6513   22.6379 H   0  0  0  0  0  0  0  0  0  0  0  0
   20.1297   19.3194   23.2164 H   0  0  0  0  0  0  0  0  0  0  0  0
   20.9244   19.0643   21.2030 C   0  0  0  0  0  0  0  0  0  0  0  0
   20.6743   18.4813   20.3061 H   0  0  0  0  0  0  0  0  0  0  0  0
   20.7976   20.1215   20.9322 H   0  0  0  0  0  0  0  0  0  0  0  0
   22.4039   18.7973   21.5652 C   0  0  0  0  0  0  0  0  0  0  0  0
   23.0221   18.9730   20.6741 H   0  0  0  0  0  0  0  0  0  0  0  0
   22.5358   17.7393   21.8306 H   0  0  0  0  0  0  0  0  0  0  0  0
   22.9227   19.6896   22.7136 C   0  0  0  0  0  0  0  0  0  0  0  0
   23.9965   19.5254   22.8719 H   0  0  0  0  0  0  0  0  0  0  0  0
   22.4102   19.4661   23.6576 H   0  0  0  0  0  0  0  0  0  0  0  0
   22.7737   20.7525   22.4834 H   0  0  0  0  0  0  0  0  0  0  0  0
  1  2  1  0  0  0  0
  1  3  2  0  0  0  0
  1  4  1  0  0  0  0
  4  5  1  0  0  0  0
  4  6  1  0  0  0  0
  4  7  1  0  0  0  0
  7  8  1  0  0  0  0
  7  9  1  0  0  0  0
  7 10  1  0  0  0  0
 10 11  1  0  0  0  0
 10 12  1  0  0  0  0
 10 13  1  0  0  0  0
 13 14  1  0  0  0  0
 13 15  1  0  0  0  0
 13 16  1  0  0  0  0
 16 17  1  0  0  0  0
 16 18  1  0  0  0  0
 16 19  1  0  0  0  0
 19 20  1  0  0  0  0
 19 21  1  0  0  0  0
 19 22  1  0  0  0  0
M  END
> <VConfSearch Rank>
63

> <Conf_Id>
37

> <Delta U+W>
-0.345

> <U+W>
-53.504

> <U>
6.751

> <W>
-60.255

> <W(PB)>
-62.592

> <W(SA)>
2.336

> <Valence>
7.602

> <Coulomb>
-1.744

> <VdW>
0.894

> <VdW6>
-7.110

> <VdW12>
8.004

> <Bond>
0.131

> <Angle>
2.489

> <Pdih>
4.982

> <Idih>
0.001

> <Tether>
0.000

$$$$
VeraChem MOL file


 22 21  0  0  0  0  0  0  0  0999 V2000     
   18.4016   16.4568   19.6196 C   0  0  0  0  0  0  0  0  0  0  0  0
   19.0784   16.3946   18.6124 O   0  5  0  0  0  0  0  0  0  0  0  0
   17.2140   16.2015   19.6493 O   0  0  0  0  0  0  0  0  0  0  0  0
   19.0751   16.9004   20.9134 C   0  0  0  0  0  0  0  0  0  0  0  0
   20.1146   16.5514   20.8934 H   0  0  0  0  0  0  0  0  0  0  0  0
   18.5783   16.3916   21.7481 H   0  0  0  0  0  0  0  0  0  0  0  0
   19.0303   18.4345   21.1198 C   0  0  0  0  0  0  0  0  0  0  0  0
   19.5206   18.9296   20.2701 H   0  0  0  0  0  0  0  0  0  0  0  0
   17.9837   18.7694   21.1238 H   0  0  0  0  0  0  0  0  0  0  0  0
   19.7182   18.8579   22.4359 C   0  0  0  0  0  0  0  0  0  0  0  0
   20.7601   18.5124   22.4245 H   0  0  0  0  0  0  0  0  0  0  0  0
   19.2246   18.3632   23.2836 H   0  0  0  0  0  0  0  0  0  0  0  0
   19.6741   20.3904   22.6354 C   0  0  0  0  0  0  0  0  0  0  0  0
   20.2112   20.8861   21.8152 H   0  0  0  0  0  0  0  0  0  0  0  0
   18.6308   20.7290   22.5736 H   0  0  0  0  0  0  0  0  0  0  0  0
   20.2602   20.8511   23.9902 C   0  0  0  0  0  0  0  0  0  0  0  0
   19.7210   20.3621   24.8133 H   0  0  0  0  0  0  0  0  0  0  0  0
   20.0841   21.9299   24.1017 H   0  0  0  0  0  0  0  0  0  0  0  0
   21.7739   20.5781   24.1261 C   0  0  0  0  0  0  0  0  0  0  0  0
   22.3311   21.0325   23.2966 H   0  0  0  0  0  0  0  0  0  0  0  0
   21.9877   19.5020   24.1364 H   0  0  0  0  0  0  0  0  0  0  0  0
   22.1576   21.0018   25.0632 H   0  0  0  0  0  0  0  0  0  0  0  0
  1  2  1  0  0  0  0
  1  3  2  0  0  0  0
  1  4  1  0  0  0  0
  4  5  1  0  0  0  0
  4  6  1  0  0  0  0
  4  7  1  0  0  0  0
  7  8  1  0  0  0  0
  7  9  1  0  0  0  0
  7 10  1  0  0  0  0
 10 11  1  0  0  0  0
 10 12  1  0  0  0  0
 10 13  1  0  0  0  0
 13 14  1  0  0  0  0
 13 15  1  0  0  0  0
 13 16  1  0  0  0  0
 16 17  1  0  0  0  0
 16 18  1  0  0  0  0
 16 19  1  0  0  0  0
 19 20  1  0  0  0  0
 19 21  1  0  0  0  0
 19 22  1  0  0  0  0
M  END
> <VConfSearch Rank>
64

> <Conf_Id>
38

> <Delta U+W>
-0.439

> <U+W>
-53.598

> <U>
6.751

> <W>
-60.350

> <W(PB)>
-62.659

> <W(SA)>
2.309

> <Valence>
7.602

> <Coulomb>
-1.744

> <VdW>
0.893

> <VdW6>
-7.110

> <VdW12>
8.004

> <Bond>
0.131

> <Angle>
2.489

> <Pdih>
4.981

> <Idih>
0.001

> <Tether>
0.000

$$$$
VeraChem MOL file


 22 21  0  0  0  0  0  0  0  0999 V2000     
   18.8124   22.0796   20.3050 C   0  0  0  0  0  0  0  0  0  0  0  0
   17.6538   22.4151   20.1578 O   0  5  0  0  0  0  0  0  0  0  0  0
   19.7171   22.4510   19.5837 O   0  0  0  0  0  0  0  0  0  0  0  0
   19.1456   21.1220   21.4435 C   0  0  0  0  0  0  0  0  0  0  0  0
   18.4496   21.3186   22.2678 H   0  0  0  0  0  0  0  0  0  0  0  0
   20.1516   21.3680   21.8011 H   0  0  0  0  0  0  0  0  0  0  0  0
   19.0636   19.6329   21.0178 C   0  0  0  0  0  0  0  0  0  0  0  0
   18.0749   19.4484   20.5752 H   0  0  0  0  0  0  0  0  0  0  0  0
   19.7991   19.4360   20.2256 H   0  0  0  0  0  0  0  0  0  0  0  0
   19.2748   18.6404   22.1861 C   0  0  0  0  0  0  0  0  0  0  0  0
   19.0581   17.6301   21.8165 H   0  0  0  0  0  0  0  0  0  0  0  0
   18.5435   18.8454   22.9798 H   0  0  0  0  0  0  0  0  0  0  0  0
   20.7073   18.6768   22.7731 C   0  0  0  0  0  0  0  0  0  0  0  0
   21.4386   18.4736   21.9790 H   0  0  0  0  0  0  0  0  0  0  0  0
   20.9242   19.6858   23.1459 H   0  0  0  0  0  0  0  0  0  0  0  0
   20.9191   17.6816   23.9379 C   0  0  0  0  0  0  0  0  0  0  0  0
   20.1819   17.8742   24.7296 H   0  0  0  0  0  0  0  0  0  0  0  0
   21.9067   17.8664   24.3826 H   0  0  0  0  0  0  0  0  0  0  0  0
   20.8416   16.2018   23.5034 C   0  0  0  0  0  0  0  0  0  0  0  0
   19.8332   15.9350   23.1638 H   0  0  0  0  0  0  0  0  0  0  0  0
   21.0936   15.5419   24.3437 H   0  0  0  0  0  0  0  0  0  0  0  0
   21.5467   15.9942   22.6879 H   0  0  0  0  0  0  0  0  0  0  0  0
  1  2  1  0  0  0  0
  1  3  2  0  0  0  0
  1  4  1  0  0  0  0
  4  5  1  0  0  0  0
  4  6  1  0  0  0  0
  4  7  1  0  0  0  0
  7  8  1  0  0  0  0
  7  9  1  0  0  0  0
  7 10  1  0  0  0  0
 10 11  1  0  0  0  0
 10 12  1  0  0  0  0
 10 13  1  0  0  0  0
 13 14  1  0  0  0  0
 13 15  1  0  0  0  0
 13 16  1  0  0  0  0
 16 17  1  0  0  0  0
 16 18  1  0  0  0  0
 16 19  1  0  0  0  0
 19 20  1  0  0  0  0
 19 21  1  0  0  0  0
 19 22  1  0  0  0  0
M  END
> <VConfSearch Rank>
65

> <Conf_Id>
60

> <Delta U+W>
0.386

> <U+W>
-52.773

> <U>
7.689

> <W>
-60.463

> <W(PB)>
-62.772

> <W(SA)>
2.309

> <Valence>
8.197

> <Coulomb>
-1.561

> <VdW>
1.053

> <VdW6>
-7.737

> <VdW12>
8.790

> <Bond>
0.181

> <Angle>
2.780

> <Pdih>
5.235

> <Idih>
0.001

> <Tether>
0.000

$$$$
VeraChem MOL file


 22 21  0  0  0  0  0  0  0  0999 V2000     
   21.3664   15.5320   22.7964 C   0  0  0  0  0  0  0  0  0  0  0  0
   22.5617   15.5681   22.5809 O   0  5  0  0  0  0  0  0  0  0  0  0
   20.7193   14.5039   22.8284 O   0  0  0  0  0  0  0  0  0  0  0  0
   20.6339   16.8509   23.0162 C   0  0  0  0  0  0  0  0  0  0  0  0
   21.3259   17.5356   23.5188 H   0  0  0  0  0  0  0  0  0  0  0  0
   19.8006   16.6662   23.7047 H   0  0  0  0  0  0  0  0  0  0  0  0
   20.1093   17.4726   21.6957 C   0  0  0  0  0  0  0  0  0  0  0  0
   20.9566   17.6986   21.0337 H   0  0  0  0  0  0  0  0  0  0  0  0
   19.4992   16.7230   21.1730 H   0  0  0  0  0  0  0  0  0  0  0  0
   19.2550   18.7458   21.9052 C   0  0  0  0  0  0  0  0  0  0  0  0
   18.4136   18.5185   22.5739 H   0  0  0  0  0  0  0  0  0  0  0  0
   18.8175   19.0239   20.9379 H   0  0  0  0  0  0  0  0  0  0  0  0
   20.0613   19.9422   22.4677 C   0  0  0  0  0  0  0  0  0  0  0  0
   20.4967   19.6666   23.4365 H   0  0  0  0  0  0  0  0  0  0  0  0
   20.9037   20.1682   21.7998 H   0  0  0  0  0  0  0  0  0  0  0  0
   19.2080   21.2158   22.6726 C   0  0  0  0  0  0  0  0  0  0  0  0
   19.8163   21.9655   23.1972 H   0  0  0  0  0  0  0  0  0  0  0  0
   18.3576   20.9910   23.3310 H   0  0  0  0  0  0  0  0  0  0  0  0
   18.6956   21.8310   21.3521 C   0  0  0  0  0  0  0  0  0  0  0  0
   19.5268   22.0322   20.6638 H   0  0  0  0  0  0  0  0  0  0  0  0
   18.1805   22.7807   21.5462 H   0  0  0  0  0  0  0  0  0  0  0  0
   17.9839   21.1654   20.8482 H   0  0  0  0  0  0  0  0  0  0  0  0
  1  2  1  0  0  0  0
  1  3  2  0  0  0  0
  1  4  1  0  0  0  0
  4  5  1  0  0  0  0
  4  6  1  0  0  0  0
  4  7  1  0  0  0  0
  7  8  1  0  0  0  0
  7  9  1  0  0  0  0
  7 10  1  0  0  0  0
 10 11  1  0  0  0  0
 10 12  1  0  0  0  0
 10 13  1  0  0  0  0
 13 14  1  0  0  0  0
 13 15  1  0  0  0  0
 13 16  1  0  0  0  0
 16 17  1  0  0  0  0
 16 18  1  0  0  0  0
 16 19  1  0  0  0  0
 19 20  1  0  0  0  0
 19 21  1  0  0  0  0
 19 22  1  0  0  0  0
M  END
> <VConfSearch Rank>
66

> <Conf_Id>
28

> <Delta U+W>
0.351

> <U+W>
-52.808

> <U>
7.689

> <W>
-60.498

> <W(PB)>
-62.768

> <W(SA)>
2.270

> <Valence>
8.197

> <Coulomb>
-1.561

> <VdW>
1.053

> <VdW6>
-7.737

> <VdW12>
8.791

> <Bond>
0.181

> <Angle>
2.780

> <Pdih>
5.235

> <Idih>
0.001

> <Tether>
0.000

$$$$
VeraChem MOL file


 22 21  0  0  0  0  0  0  0  0999 V2000     
   19.7338   15.3165   23.3359 C   0  0  0  0  0  0  0  0  0  0  0  0
   20.5132   14.5461   22.8111 O   0  5  0  0  0  0  0  0  0  0  0  0
   19.4688   15.3021   24.5217 O   0  0  0  0  0  0  0  0  0  0  0  0
   19.0666   16.3725   22.4618 C   0  0  0  0  0  0  0  0  0  0  0  0
   18.0686   16.5722   22.8704 H   0  0  0  0  0  0  0  0  0  0  0  0
   18.9281   15.9476   21.4604 H   0  0  0  0  0  0  0  0  0  0  0  0
   19.8818   17.6865   22.3778 C   0  0  0  0  0  0  0  0  0  0  0  0
   20.0241   18.0809   23.3925 H   0  0  0  0  0  0  0  0  0  0  0  0
   20.8807   17.4685   21.9755 H   0  0  0  0  0  0  0  0  0  0  0  0
   19.1804   18.7404   21.4898 C   0  0  0  0  0  0  0  0  0  0  0  0
   18.2032   18.9976   21.9211 H   0  0  0  0  0  0  0  0  0  0  0  0
   18.9787   18.2993   20.5041 H   0  0  0  0  0  0  0  0  0  0  0  0
   20.0127   20.0290   21.2886 C   0  0  0  0  0  0  0  0  0  0  0  0
   20.9884   19.7727   20.8535 H   0  0  0  0  0  0  0  0  0  0  0  0
   19.5007   20.6622   20.5511 H   0  0  0  0  0  0  0  0  0  0  0  0
   20.2185   20.8394   22.5883 C   0  0  0  0  0  0  0  0  0  0  0  0
   20.7978   20.2522   23.3128 H   0  0  0  0  0  0  0  0  0  0  0  0
   19.2448   21.0505   23.0515 H   0  0  0  0  0  0  0  0  0  0  0  0
   20.9545   22.1667   22.3162 C   0  0  0  0  0  0  0  0  0  0  0  0
   20.3834   22.7984   21.6233 H   0  0  0  0  0  0  0  0  0  0  0  0
   21.9442   21.9838   21.8773 H   0  0  0  0  0  0  0  0  0  0  0  0
   21.0958   22.7287   23.2485 H   0  0  0  0  0  0  0  0  0  0  0  0
  1  2  1  0  0  0  0
  1  3  2  0  0  0  0
  1  4  1  0  0  0  0
  4  5  1  0  0  0  0
  4  6  1  0  0  0  0
  4  7  1  0  0  0  0
  7  8  1  0  0  0  0
  7  9  1  0  0  0  0
  7 10  1  0  0  0  0
 10 11  1  0  0  0  0
 10 12  1  0  0  0  0
 10 13  1  0  0  0  0
 13 14  1  0  0  0  0
 13 15  1  0  0  0  0
 13 16  1  0  0  0  0
 16 17  1  0  0  0  0
 16 18  1  0  0  0  0
 16 19  1  0  0  0  0
 19 20  1  0  0  0  0
 19 21  1  0  0  0  0
 19 22  1  0  0  0  0
M  END
> <VConfSearch Rank>
67

> <Conf_Id>
50

> <Delta U+W>
-0.486

> <U+W>
-53.646

> <U>
7.026

> <W>
-60.672

> <W(PB)>
-62.964

> <W(SA)>
2.292

> <Valence>
7.637

> <Coulomb>
-1.488

> <VdW>
0.877

> <VdW6>
-7.165

> <VdW12>
8.043

> <Bond>
0.134

> <Angle>
2.513

> <Pdih>
4.990

> <Idih>
0.001

> <Tether>
0.000

$$$$
VeraChem MOL file


 22 21  0  0  0  0  0  0  0  0999 V2000     
   20.5944   20.8872   25.3807 C   0  0  0  0  0  0  0  0  0  0  0  0
   19.7120   21.5587   25.8776 O   0  5  0  0  0  0  0  0  0  0  0  0
   21.7475   21.2577   25.2821 O   0  0  0  0  0  0  0  0  0  0  0  0
   20.2306   19.5121   24.8322 C   0  0  0  0  0  0  0  0  0  0  0  0
   19.4222   19.1022   25.4496 H   0  0  0  0  0  0  0  0  0  0  0  0
   21.0993   18.8546   24.9569 H   0  0  0  0  0  0  0  0  0  0  0  0
   19.8005   19.5522   23.3450 C   0  0  0  0  0  0  0  0  0  0  0  0
   18.9358   20.2212   23.2354 H   0  0  0  0  0  0  0  0  0  0  0  0
   20.6170   19.9839   22.7514 H   0  0  0  0  0  0  0  0  0  0  0  0
   19.4418   18.1449   22.8139 C   0  0  0  0  0  0  0  0  0  0  0  0
   18.6784   17.7008   23.4672 H   0  0  0  0  0  0  0  0  0  0  0  0
   20.3220   17.4902   22.8746 H   0  0  0  0  0  0  0  0  0  0  0  0
   18.9013   18.1526   21.3643 C   0  0  0  0  0  0  0  0  0  0  0  0
   18.5567   17.1393   21.1161 H   0  0  0  0  0  0  0  0  0  0  0  0
   18.0188   18.8040   21.3039 H   0  0  0  0  0  0  0  0  0  0  0  0
   19.9487   18.5960   20.3180 C   0  0  0  0  0  0  0  0  0  0  0  0
   20.8525   17.9785   20.4135 H   0  0  0  0  0  0  0  0  0  0  0  0
   20.2499   19.6358   20.5011 H   0  0  0  0  0  0  0  0  0  0  0  0
   19.3982   18.4791   18.8824 C   0  0  0  0  0  0  0  0  0  0  0  0
   18.5085   19.1089   18.7509 H   0  0  0  0  0  0  0  0  0  0  0  0
   19.1219   17.4423   18.6503 H   0  0  0  0  0  0  0  0  0  0  0  0
   20.1519   18.8004   18.1519 H   0  0  0  0  0  0  0  0  0  0  0  0
  1  2  1  0  0  0  0
  1  3  2  0  0  0  0
  1  4  1  0  0  0  0
  4  5  1  0  0  0  0
  4  6  1  0  0  0  0
  4  7  1  0  0  0  0
  7  8  1  0  0  0  0
  7  9  1  0  0  0  0
  7 10  1  0  0  0  0
 10 11  1  0  0  0  0
 10 12  1  0  0  0  0
 10 13  1  0  0  0  0
 13 14  1  0  0  0  0
 13 15  1  0  0  0  0
 13 16  1  0  0  0  0
 16 17  1  0  0  0  0
 16 18  1  0  0  0  0
 16 19  1  0  0  0  0
 19 20  1  0  0  0  0
 19 21  1  0  0  0  0
 19 22  1  0  0  0  0
M  END
> <VConfSearch Rank>
68

> <Conf_Id>
51

> <Delta U+W>
-0.517

> <U+W>
-53.677

> <U>
7.026

> <W>
-60.703

> <W(PB)>
-63.007

> <W(SA)>
2.304

> <Valence>
7.638

> <Coulomb>
-1.488

> <VdW>
0.877

> <VdW6>
-7.165

> <VdW12>
8.042

> <Bond>
0.134

> <Angle>
2.513

> <Pdih>
4.990

> <Idih>
0.001

> <Tether>
0.000

$$$$
VeraChem MOL file


 22 21  0  0  0  0  0  0  0  0999 V2000     
   19.3411   20.8843   25.1076 C   0  0  0  0  0  0  0  0  0  0  0  0
   20.3302   21.4595   25.5170 O   0  5  0  0  0  0  0  0  0  0  0  0
   18.3561   21.4577   24.6859 O   0  0  0  0  0  0  0  0  0  0  0  0
   19.3301   19.3586   25.1436 C   0  0  0  0  0  0  0  0  0  0  0  0
   18.2908   19.0142   25.0794 H   0  0  0  0  0  0  0  0  0  0  0  0
   19.7061   19.0511   26.1265 H   0  0  0  0  0  0  0  0  0  0  0  0
   20.1838   18.6952   24.0318 C   0  0  0  0  0  0  0  0  0  0  0  0
   21.2147   19.0711   24.0914 H   0  0  0  0  0  0  0  0  0  0  0  0
   20.2305   17.6134   24.2160 H   0  0  0  0  0  0  0  0  0  0  0  0
   19.6160   18.9469   22.6169 C   0  0  0  0  0  0  0  0  0  0  0  0
   19.5821   20.0271   22.4184 H   0  0  0  0  0  0  0  0  0  0  0  0
   18.5812   18.5814   22.5664 H   0  0  0  0  0  0  0  0  0  0  0  0
   20.4628   18.2519   21.5291 C   0  0  0  0  0  0  0  0  0  0  0  0
   21.4975   18.6180   21.5802 H   0  0  0  0  0  0  0  0  0  0  0  0
   20.4959   17.1711   21.7237 H   0  0  0  0  0  0  0  0  0  0  0  0
   19.8969   18.5034   20.1158 C   0  0  0  0  0  0  0  0  0  0  0  0
   19.8640   19.5836   19.9168 H   0  0  0  0  0  0  0  0  0  0  0  0
   18.8624   18.1370   20.0603 H   0  0  0  0  0  0  0  0  0  0  0  0
   20.7454   17.8084   19.0321 C   0  0  0  0  0  0  0  0  0  0  0  0
   21.7786   18.1796   19.0442 H   0  0  0  0  0  0  0  0  0  0  0  0
   20.3290   17.9977   18.0342 H   0  0  0  0  0  0  0  0  0  0  0  0
   20.7695   16.7220   19.1889 H   0  0  0  0  0  0  0  0  0  0  0  0
  1  2  1  0  0  0  0
  1  3  2  0  0  0  0
  1  4  1  0  0  0  0
  4  5  1  0  0  0  0
  4  6  1  0  0  0  0
  4  7  1  0  0  0  0
  7  8  1  0  0  0  0
  7  9  1  0  0  0  0
  7 10  1  0  0  0  0
 10 11  1  0  0  0  0
 10 12  1  0  0  0  0
 10 13  1  0  0  0  0
 13 14  1  0  0  0  0
 13 15  1  0  0  0  0
 13 16  1  0  0  0  0
 16 17  1  0  0  0  0
 16 18  1  0  0  0  0
 16 19  1  0  0  0  0
 19 20  1  0  0  0  0
 19 21  1  0  0  0  0
 19 22  1  0  0  0  0
M  END
> <VConfSearch Rank>
69

> <Conf_Id>
43

> <Delta U+W>
-0.129

> <U+W>
-53.289

> <U>
7.937

> <W>
-61.225

> <W(PB)>
-63.523

> <W(SA)>
2.297

> <Valence>
7.358

> <Coulomb>
-0.022

> <VdW>
0.601

> <VdW6>
-7.363

> <VdW12>
7.964

> <Bond>
0.121

> <Angle>
2.425

> <Pdih>
4.811

> <Idih>
0.000

> <Tether>
0.000

$$$$
VeraChem MOL file


 22 21  0  0  0  0  0  0  0  0999 V2000     
   20.3904   20.5556   19.2873 C   0  0  0  0  0  0  0  0  0  0  0  0
   21.1850   19.9235   18.6196 O   0  5  0  0  0  0  0  0  0  0  0  0
   20.5919   21.6884   19.6786 O   0  0  0  0  0  0  0  0  0  0  0  0
   19.0595   19.8955   19.6368 C   0  0  0  0  0  0  0  0  0  0  0  0
   18.6732   19.4316   18.7216 H   0  0  0  0  0  0  0  0  0  0  0  0
   18.3452   20.6772   19.9224 H   0  0  0  0  0  0  0  0  0  0  0  0
   19.1602   18.8271   20.7563 C   0  0  0  0  0  0  0  0  0  0  0  0
   18.1943   18.3115   20.8448 H   0  0  0  0  0  0  0  0  0  0  0  0
   19.8994   18.0667   20.4683 H   0  0  0  0  0  0  0  0  0  0  0  0
   19.5404   19.4347   22.1252 C   0  0  0  0  0  0  0  0  0  0  0  0
   18.8058   20.2032   22.4023 H   0  0  0  0  0  0  0  0  0  0  0  0
   20.5143   19.9379   22.0491 H   0  0  0  0  0  0  0  0  0  0  0  0
   19.6041   18.3587   23.2305 C   0  0  0  0  0  0  0  0  0  0  0  0
   18.6305   17.8560   23.3105 H   0  0  0  0  0  0  0  0  0  0  0  0
   20.3389   17.5906   22.9526 H   0  0  0  0  0  0  0  0  0  0  0  0
   19.9846   18.9646   24.5977 C   0  0  0  0  0  0  0  0  0  0  0  0
   19.2507   19.7323   24.8797 H   0  0  0  0  0  0  0  0  0  0  0  0
   20.9590   19.4669   24.5219 H   0  0  0  0  0  0  0  0  0  0  0  0
   20.0478   17.8871   25.6987 C   0  0  0  0  0  0  0  0  0  0  0  0
   19.0763   17.3896   25.8177 H   0  0  0  0  0  0  0  0  0  0  0  0
   20.3195   18.3352   26.6634 H   0  0  0  0  0  0  0  0  0  0  0  0
   20.7974   17.1222   25.4572 H   0  0  0  0  0  0  0  0  0  0  0  0
  1  2  1  0  0  0  0
  1  3  2  0  0  0  0
  1  4  1  0  0  0  0
  4  5  1  0  0  0  0
  4  6  1  0  0  0  0
  4  7  1  0  0  0  0
  7  8  1  0  0  0  0
  7  9  1  0  0  0  0
  7 10  1  0  0  0  0
 10 11  1  0  0  0  0
 10 12  1  0  0  0  0
 10 13  1  0  0  0  0
 13 14  1  0  0  0  0
 13 15  1  0  0  0  0
 13 16  1  0  0  0  0
 16 17  1  0  0  0  0
 16 18  1  0  0  0  0
 16 19  1  0  0  0  0
 19 20  1  0  0  0  0
 19 21  1  0  0  0  0
 19 22  1  0  0  0  0
M  END
> <VConfSearch Rank>
70

> <Conf_Id>
44

> <Delta U+W>
-0.155

> <U+W>
-53.314

> <U>
7.937

> <W>
-61.252

> <W(PB)>
-63.556

> <W(SA)>
2.304

> <Valence>
7.358

> <Coulomb>
-0.021

> <VdW>
0.600

> <VdW6>
-7.363

> <VdW12>
7.964

> <Bond>
0.121

> <Angle>
2.425

> <Pdih>
4.811

> <Idih>
0.001

> <Tether>
0.000

$$$$
VeraChem MOL file


 22 21  0  0  0  0  0  0  0  0999 V2000     
   21.1793   20.3608   25.2505 C   0  0  0  0  0  0  0  0  0  0  0  0
   21.6510   21.4635   25.0543 O   0  5  0  0  0  0  0  0  0  0  0  0
   21.7811   19.4607   25.8024 O   0  0  0  0  0  0  0  0  0  0  0  0
   19.7460   20.1003   24.7952 C   0  0  0  0  0  0  0  0  0  0  0  0
   19.1407   20.9567   25.1150 H   0  0  0  0  0  0  0  0  0  0  0  0
   19.3622   19.2231   25.3301 H   0  0  0  0  0  0  0  0  0  0  0  0
   19.5945   19.9025   23.2644 C   0  0  0  0  0  0  0  0  0  0  0  0
   18.5247   19.8784   23.0215 H   0  0  0  0  0  0  0  0  0  0  0  0
   20.0196   20.7705   22.7416 H   0  0  0  0  0  0  0  0  0  0  0  0
   20.2724   18.6045   22.7634 C   0  0  0  0  0  0  0  0  0  0  0  0
   19.8171   17.7346   23.2561 H   0  0  0  0  0  0  0  0  0  0  0  0
   21.3293   18.6111   23.0630 H   0  0  0  0  0  0  0  0  0  0  0  0
   20.2037   18.4259   21.2281 C   0  0  0  0  0  0  0  0  0  0  0  0
   20.6589   19.2961   20.7358 H   0  0  0  0  0  0  0  0  0  0  0  0
   20.8169   17.5572   20.9518 H   0  0  0  0  0  0  0  0  0  0  0  0
   18.7687   18.2160   20.6940 C   0  0  0  0  0  0  0  0  0  0  0  0
   18.1581   19.1074   20.8882 H   0  0  0  0  0  0  0  0  0  0  0  0
   18.2941   17.3796   21.2253 H   0  0  0  0  0  0  0  0  0  0  0  0
   18.7661   17.9277   19.1792 C   0  0  0  0  0  0  0  0  0  0  0  0
   19.2112   18.7613   18.6203 H   0  0  0  0  0  0  0  0  0  0  0  0
   17.7406   17.7844   18.8146 H   0  0  0  0  0  0  0  0  0  0  0  0
   19.3369   17.0180   18.9509 H   0  0  0  0  0  0  0  0  0  0  0  0
  1  2  1  0  0  0  0
  1  3  2  0  0  0  0
  1  4  1  0  0  0  0
  4  5  1  0  0  0  0
  4  6  1  0  0  0  0
  4  7  1  0  0  0  0
  7  8  1  0  0  0  0
  7  9  1  0  0  0  0
  7 10  1  0  0  0  0
 10 11  1  0  0  0  0
 10 12  1  0  0  0  0
 10 13  1  0  0  0  0
 13 14  1  0  0  0  0
 13 15  1  0  0  0  0
 13 16  1  0  0  0  0
 16 17  1  0  0  0  0
 16 18  1  0  0  0  0
 16 19  1  0  0  0  0
 19 20  1  0  0  0  0
 19 21  1  0  0  0  0
 19 22  1  0  0  0  0
M  END
> <VConfSearch Rank>
71

> <Conf_Id>
53

> <Delta U+W>
0.723

> <U+W>
-52.436

> <U>
8.587

> <W>
-61.022

> <W(PB)>
-63.285

> <W(SA)>
2.263

> <Valence>
7.933

> <Coulomb>
-0.124

> <VdW>
0.778

> <VdW6>
-7.981

> <VdW12>
8.759

> <Bond>
0.160

> <Angle>
2.698

> <Pdih>
5.074

> <Idih>
0.001

> <Tether>
0.000

$$$$
VeraChem MOL file


 22 21  0  0  0  0  0  0  0  0999 V2000     
   17.1582   17.8484   24.1125 C   0  0  0  0  0  0  0  0  0  0  0  0
   17.2605   18.2329   25.2606 O   0  5  0  0  0  0  0  0  0  0  0  0
   16.2051   17.2202   23.6960 O   0  0  0  0  0  0  0  0  0  0  0  0
   18.2765   18.1920   23.1351 C   0  0  0  0  0  0  0  0  0  0  0  0
   18.3370   17.3896   22.3903 H   0  0  0  0  0  0  0  0  0  0  0  0
   19.2177   18.1942   23.6962 H   0  0  0  0  0  0  0  0  0  0  0  0
   18.0635   19.5582   22.4355 C   0  0  0  0  0  0  0  0  0  0  0  0
   17.0556   19.5763   21.9982 H   0  0  0  0  0  0  0  0  0  0  0  0
   18.0856   20.3573   23.1893 H   0  0  0  0  0  0  0  0  0  0  0  0
   19.0898   19.8703   21.3175 C   0  0  0  0  0  0  0  0  0  0  0  0
   18.8077   20.8328   20.8693 H   0  0  0  0  0  0  0  0  0  0  0  0
   19.0056   19.1296   20.5104 H   0  0  0  0  0  0  0  0  0  0  0  0
   20.5587   19.9749   21.8002 C   0  0  0  0  0  0  0  0  0  0  0  0
   21.0585   20.7663   21.2249 H   0  0  0  0  0  0  0  0  0  0  0  0
   20.5890   20.2955   22.8506 H   0  0  0  0  0  0  0  0  0  0  0  0
   21.3602   18.6660   21.6130 C   0  0  0  0  0  0  0  0  0  0  0  0
   21.3692   18.3895   20.5497 H   0  0  0  0  0  0  0  0  0  0  0  0
   20.8793   17.8385   22.1481 H   0  0  0  0  0  0  0  0  0  0  0  0
   22.8115   18.8157   22.1117 C   0  0  0  0  0  0  0  0  0  0  0  0
   23.3348   19.6115   21.5657 H   0  0  0  0  0  0  0  0  0  0  0  0
   23.3690   17.8813   21.9657 H   0  0  0  0  0  0  0  0  0  0  0  0
   22.8352   19.0609   23.1816 H   0  0  0  0  0  0  0  0  0  0  0  0
  1  2  1  0  0  0  0
  1  3  2  0  0  0  0
  1  4  1  0  0  0  0
  4  5  1  0  0  0  0
  4  6  1  0  0  0  0
  4  7  1  0  0  0  0
  7  8  1  0  0  0  0
  7  9  1  0  0  0  0
  7 10  1  0  0  0  0
 10 11  1  0  0  0  0
 10 12  1  0  0  0  0
 10 13  1  0  0  0  0
 13 14  1  0  0  0  0
 13 15  1  0  0  0  0
 13 16  1  0  0  0  0
 16 17  1  0  0  0  0
 16 18  1  0  0  0  0
 16 19  1  0  0  0  0
 19 20  1  0  0  0  0
 19 21  1  0  0  0  0
 19 22  1  0  0  0  0
M  END
> <VConfSearch Rank>
72

> <Conf_Id>
5

> <Delta U+W>
2.167

> <U+W>
-50.993

> <U>
10.045

> <W>
-61.037

> <W(PB)>
-63.303

> <W(SA)>
2.266

> <Valence>
10.100

> <Coulomb>
-0.883

> <VdW>
0.828

> <VdW6>
-8.177

> <VdW12>
9.005

> <Bond>
0.182

> <Angle>
2.988

> <Pdih>
6.930

> <Idih>
0.001

> <Tether>
0.000

$$$$
VeraChem MOL file


 22 21  0  0  0  0  0  0  0  0999 V2000     
   19.4188   19.9034   19.1910 C   0  0  0  0  0  0  0  0  0  0  0  0
   20.1070   20.8831   18.9833 O   0  5  0  0  0  0  0  0  0  0  0  0
   18.6427   19.4419   18.3778 O   0  0  0  0  0  0  0  0  0  0  0  0
   19.5174   19.2295   20.5549 C   0  0  0  0  0  0  0  0  0  0  0  0
   20.5518   19.3330   20.9013 H   0  0  0  0  0  0  0  0  0  0  0  0
   19.3183   18.1595   20.4218 H   0  0  0  0  0  0  0  0  0  0  0  0
   18.5387   19.8320   21.5942 C   0  0  0  0  0  0  0  0  0  0  0  0
   18.8043   20.8830   21.7737 H   0  0  0  0  0  0  0  0  0  0  0  0
   17.5282   19.8399   21.1627 H   0  0  0  0  0  0  0  0  0  0  0  0
   18.4910   19.0709   22.9430 C   0  0  0  0  0  0  0  0  0  0  0  0
   18.1305   18.0452   22.7850 H   0  0  0  0  0  0  0  0  0  0  0  0
   17.7339   19.5594   23.5715 H   0  0  0  0  0  0  0  0  0  0  0  0
   19.8296   19.0560   23.7238 C   0  0  0  0  0  0  0  0  0  0  0  0
   20.4223   19.9466   23.4739 H   0  0  0  0  0  0  0  0  0  0  0  0
   19.6071   19.1285   24.7972 H   0  0  0  0  0  0  0  0  0  0  0  0
   20.6607   17.7730   23.4912 C   0  0  0  0  0  0  0  0  0  0  0  0
   20.8817   17.6437   22.4250 H   0  0  0  0  0  0  0  0  0  0  0  0
   20.0758   16.8955   23.7996 H   0  0  0  0  0  0  0  0  0  0  0  0
   21.9839   17.8057   24.2820 C   0  0  0  0  0  0  0  0  0  0  0  0
   22.6054   18.6559   23.9716 H   0  0  0  0  0  0  0  0  0  0  0  0
   22.5587   16.8860   24.1124 H   0  0  0  0  0  0  0  0  0  0  0  0
   21.7957   17.8938   25.3600 H   0  0  0  0  0  0  0  0  0  0  0  0
  1  2  1  0  0  0  0
  1  3  2  0  0  0  0
  1  4  1  0  0  0  0
  4  5  1  0  0  0  0
  4  6  1  0  0  0  0
  4  7  1  0  0  0  0
  7  8  1  0  0  0  0
  7  9  1  0  0  0  0
  7 10  1  0  0  0  0
 10 11  1  0  0  0  0
 10 12  1  0  0  0  0
 10 13  1  0  0  0  0
 13 14  1  0  0  0  0
 13 15  1  0  0  0  0
 13 16  1  0  0  0  0
 16 17  1  0  0  0  0
 16 18  1  0  0  0  0
 16 19  1  0  0  0  0
 19 20  1  0  0  0  0
 19 21  1  0  0  0  0
 19 22  1  0  0  0  0
M  END
> <VConfSearch Rank>
73

> <Conf_Id>
6

> <Delta U+W>
2.118

> <U+W>
-51.042

> <U>
10.045

> <W>
-61.086

> <W(PB)>
-63.356

> <W(SA)>
2.270

> <Valence>
10.100

> <Coulomb>
-0.883

> <VdW>
0.828

> <VdW6>
-8.177

> <VdW12>
9.004

> <Bond>
0.182

> <Angle>
2.988

> <Pdih>
6.930

> <Idih>
0.001

> <Tether>
0.000

$$$$
VeraChem MOL file


 22 21  0  0  0  0  0  0  0  0999 V2000     
   21.8650   17.5920   21.9160 C   0  0  0  0  0  0  0  0  0  0  0  0
   21.8051   16.5267   22.4982 O   0  5  0  0  0  0  0  0  0  0  0  0
   22.6604   18.4664   22.1985 O   0  0  0  0  0  0  0  0  0  0  0  0
   20.9409   17.8182   20.7208 C   0  0  0  0  0  0  0  0  0  0  0  0
   21.2192   17.0693   19.9703 H   0  0  0  0  0  0  0  0  0  0  0  0
   21.1597   18.7990   20.2815 H   0  0  0  0  0  0  0  0  0  0  0  0
   19.4213   17.6905   21.0232 C   0  0  0  0  0  0  0  0  0  0  0  0
   18.9014   17.5044   20.0738 H   0  0  0  0  0  0  0  0  0  0  0  0
   19.2366   16.8050   21.6473 H   0  0  0  0  0  0  0  0  0  0  0  0
   18.7811   18.9418   21.6739 C   0  0  0  0  0  0  0  0  0  0  0  0
   17.6923   18.7964   21.6957 H   0  0  0  0  0  0  0  0  0  0  0  0
   18.9623   19.8212   21.0409 H   0  0  0  0  0  0  0  0  0  0  0  0
   19.2727   19.2261   23.1112 C   0  0  0  0  0  0  0  0  0  0  0  0
   19.1864   18.3142   23.7179 H   0  0  0  0  0  0  0  0  0  0  0  0
   20.3346   19.5018   23.0946 H   0  0  0  0  0  0  0  0  0  0  0  0
   18.4701   20.3659   23.7736 C   0  0  0  0  0  0  0  0  0  0  0  0
   17.4045   20.0999   23.8055 H   0  0  0  0  0  0  0  0  0  0  0  0
   18.5540   21.2782   23.1670 H   0  0  0  0  0  0  0  0  0  0  0  0
   18.9683   20.6540   25.2041 C   0  0  0  0  0  0  0  0  0  0  0  0
   18.8665   19.7659   25.8415 H   0  0  0  0  0  0  0  0  0  0  0  0
   18.3881   21.4670   25.6597 H   0  0  0  0  0  0  0  0  0  0  0  0
   20.0248   20.9527   25.1989 H   0  0  0  0  0  0  0  0  0  0  0  0
  1  2  1  0  0  0  0
  1  3  2  0  0  0  0
  1  4  1  0  0  0  0
  4  5  1  0  0  0  0
  4  6  1  0  0  0  0
  4  7  1  0  0  0  0
  7  8  1  0  0  0  0
  7  9  1  0  0  0  0
  7 10  1  0  0  0  0
 10 11  1  0  0  0  0
 10 12  1  0  0  0  0
 10 13  1  0  0  0  0
 13 14  1  0  0  0  0
 13 15  1  0  0  0  0
 13 16  1  0  0  0  0
 16 17  1  0  0  0  0
 16 18  1  0  0  0  0
 16 19  1  0  0  0  0
 19 20  1  0  0  0  0
 19 21  1  0  0  0  0
 19 22  1  0  0  0  0
M  END
> <VConfSearch Rank>
74

> <Conf_Id>
8

> <Delta U+W>
1.886

> <U+W>
-51.274

> <U>
11.237

> <W>
-62.510

> <W(PB)>
-64.777

> <W(SA)>
2.267

> <Valence>
9.029

> <Coulomb>
1.667

> <VdW>
0.540

> <VdW6>
-8.825

> <VdW12>
9.365

> <Bond>
0.186

> <Angle>
3.195

> <Pdih>
5.642

> <Idih>
0.007

> <Tether>
0.000

$$$$
VeraChem MOL file


 22 21  0  0  0  0  0  0  0  0999 V2000     
   21.7207   17.8229   20.4191 C   0  0  0  0  0  0  0  0  0  0  0  0
   22.5997   17.9413   21.2497 O   0  5  0  0  0  0  0  0  0  0  0  0
   21.8342   18.1843   19.2642 O   0  0  0  0  0  0  0  0  0  0  0  0
   20.4130   17.1572   20.8389 C   0  0  0  0  0  0  0  0  0  0  0  0
   20.5693   16.6487   21.7968 H   0  0  0  0  0  0  0  0  0  0  0  0
   20.1970   16.3727   20.1044 H   0  0  0  0  0  0  0  0  0  0  0  0
   19.2035   18.1284   20.9221 C   0  0  0  0  0  0  0  0  0  0  0  0
   19.0292   18.5574   19.9257 H   0  0  0  0  0  0  0  0  0  0  0  0
   18.2994   17.5575   21.1731 H   0  0  0  0  0  0  0  0  0  0  0  0
   19.3739   19.2852   21.9378 C   0  0  0  0  0  0  0  0  0  0  0  0
   18.5078   19.9517   21.8398 H   0  0  0  0  0  0  0  0  0  0  0  0
   20.2566   19.8836   21.6738 H   0  0  0  0  0  0  0  0  0  0  0  0
   19.4922   18.8048   23.4050 C   0  0  0  0  0  0  0  0  0  0  0  0
   18.6208   18.1896   23.6667 H   0  0  0  0  0  0  0  0  0  0  0  0
   20.3741   18.1588   23.5046 H   0  0  0  0  0  0  0  0  0  0  0  0
   19.6330   19.9625   24.4208 C   0  0  0  0  0  0  0  0  0  0  0  0
   20.4952   20.5886   24.1521 H   0  0  0  0  0  0  0  0  0  0  0  0
   19.8552   19.5371   25.4092 H   0  0  0  0  0  0  0  0  0  0  0  0
   18.3668   20.8393   24.5332 C   0  0  0  0  0  0  0  0  0  0  0  0
   18.1712   21.3841   23.6014 H   0  0  0  0  0  0  0  0  0  0  0  0
   18.4847   21.5820   25.3327 H   0  0  0  0  0  0  0  0  0  0  0  0
   17.4853   20.2283   24.7672 H   0  0  0  0  0  0  0  0  0  0  0  0
  1  2  1  0  0  0  0
  1  3  2  0  0  0  0
  1  4  1  0  0  0  0
  4  5  1  0  0  0  0
  4  6  1  0  0  0  0
  4  7  1  0  0  0  0
  7  8  1  0  0  0  0
  7  9  1  0  0  0  0
  7 10  1  0  0  0  0
 10 11  1  0  0  0  0
 10 12  1  0  0  0  0
 10 13  1  0  0  0  0
 13 14  1  0  0  0  0
 13 15  1  0  0  0  0
 13 16  1  0  0  0  0
 16 17  1  0  0  0  0
 16 18  1  0  0  0  0
 16 19  1  0  0  0  0
 19 20  1  0  0  0  0
 19 21  1  0  0  0  0
 19 22  1  0  0  0  0
M  END
> <VConfSearch Rank>
75

> <Conf_Id>
93

> <Delta U+W>
1.836

> <U+W>
-51.323

> <U>
10.427

> <W>
-61.751

> <W(PB)>
-63.980

> <W(SA)>
2.230

> <Valence>
8.446

> <Coulomb>
1.306

> <VdW>
0.676

> <VdW6>
-8.928

> <VdW12>
9.604

> <Bond>
0.209

> <Angle>
3.066

> <Pdih>
5.170

> <Idih>
0.001

> <Tether>
0.000

$$$$
VeraChem MOL file


 22 21  0  0  0  0  0  0  0  0999 V2000     
   22.0071   21.1748   22.2196 C   0  0  0  0  0  0  0  0  0  0  0  0
   22.5559   21.7232   23.1552 O   0  5  0  0  0  0  0  0  0  0  0  0
   21.3770   21.7697   21.3676 O   0  0  0  0  0  0  0  0  0  0  0  0
   22.1434   19.6600   22.0935 C   0  0  0  0  0  0  0  0  0  0  0  0
   23.2091   19.4204   22.1861 H   0  0  0  0  0  0  0  0  0  0  0  0
   21.8472   19.3635   21.0810 H   0  0  0  0  0  0  0  0  0  0  0  0
   21.3437   18.8591   23.1576 C   0  0  0  0  0  0  0  0  0  0  0  0
   21.5446   17.7871   23.0279 H   0  0  0  0  0  0  0  0  0  0  0  0
   21.7231   19.1243   24.1541 H   0  0  0  0  0  0  0  0  0  0  0  0
   19.8137   19.0980   23.1292 C   0  0  0  0  0  0  0  0  0  0  0  0
   19.6015   20.1632   23.2939 H   0  0  0  0  0  0  0  0  0  0  0  0
   19.3715   18.5598   23.9770 H   0  0  0  0  0  0  0  0  0  0  0  0
   19.1414   18.6319   21.8146 C   0  0  0  0  0  0  0  0  0  0  0  0
   19.5684   19.1904   20.9716 H   0  0  0  0  0  0  0  0  0  0  0  0
   19.3678   17.5720   21.6361 H   0  0  0  0  0  0  0  0  0  0  0  0
   17.6096   18.8443   21.7993 C   0  0  0  0  0  0  0  0  0  0  0  0
   17.2350   18.6261   20.7897 H   0  0  0  0  0  0  0  0  0  0  0  0
   17.3800   19.9012   21.9932 H   0  0  0  0  0  0  0  0  0  0  0  0
   16.8553   17.9529   22.8100 C   0  0  0  0  0  0  0  0  0  0  0  0
   17.1058   18.2176   23.8446 H   0  0  0  0  0  0  0  0  0  0  0  0
   17.0974   16.8933   22.6565 H   0  0  0  0  0  0  0  0  0  0  0  0
   15.7706   18.0720   22.6910 H   0  0  0  0  0  0  0  0  0  0  0  0
  1  2  1  0  0  0  0
  1  3  2  0  0  0  0
  1  4  1  0  0  0  0
  4  5  1  0  0  0  0
  4  6  1  0  0  0  0
  4  7  1  0  0  0  0
  7  8  1  0  0  0  0
  7  9  1  0  0  0  0
  7 10  1  0  0  0  0
 10 11  1  0  0  0  0
 10 12  1  0  0  0  0
 10 13  1  0  0  0  0
 13 14  1  0  0  0  0
 13 15  1  0  0  0  0
 13 16  1  0  0  0  0
 16 17  1  0  0  0  0
 16 18  1  0  0  0  0
 16 19  1  0  0  0  0
 19 20  1  0  0  0  0
 19 21  1  0  0  0  0
 19 22  1  0  0  0  0
M  END
> <VConfSearch Rank>
76

> <Conf_Id>
70

> <Delta U+W>
1.803

> <U+W>
-51.356

> <U>
10.428

> <W>
-61.784

> <W(PB)>
-64.014

> <W(SA)>
2.230

> <Valence>
8.445

> <Coulomb>
1.306

> <VdW>
0.676

> <VdW6>
-8.929

> <VdW12>
9.605

> <Bond>
0.209

> <Angle>
3.066

> <Pdih>
5.170

> <Idih>
0.001

> <Tether>
0.000

$$$$
VeraChem MOL file


 22 21  0  0  0  0  0  0  0  0999 V2000     
   17.6718   21.1500   23.9602 C   0  0  0  0  0  0  0  0  0  0  0  0
   17.2296   20.4983   24.8858 O   0  5  0  0  0  0  0  0  0  0  0  0
   16.9739   21.6999   23.1311 O   0  0  0  0  0  0  0  0  0  0  0  0
   19.1861   21.3023   23.8468 C   0  0  0  0  0  0  0  0  0  0  0  0
   19.5689   21.5324   24.8481 H   0  0  0  0  0  0  0  0  0  0  0  0
   19.4042   22.1725   23.2161 H   0  0  0  0  0  0  0  0  0  0  0  0
   19.9056   20.0448   23.2936 C   0  0  0  0  0  0  0  0  0  0  0  0
   20.9913   20.1929   23.3690 H   0  0  0  0  0  0  0  0  0  0  0  0
   19.6570   19.1846   23.9291 H   0  0  0  0  0  0  0  0  0  0  0  0
   19.5315   19.7485   21.8216 C   0  0  0  0  0  0  0  0  0  0  0  0
   19.7064   20.6512   21.2203 H   0  0  0  0  0  0  0  0  0  0  0  0
   18.4573   19.5302   21.7461 H   0  0  0  0  0  0  0  0  0  0  0  0
   20.3389   18.5825   21.2034 C   0  0  0  0  0  0  0  0  0  0  0  0
   20.1004   18.5234   20.1327 H   0  0  0  0  0  0  0  0  0  0  0  0
   21.4133   18.8020   21.2706 H   0  0  0  0  0  0  0  0  0  0  0  0
   20.0445   17.2144   21.8590 C   0  0  0  0  0  0  0  0  0  0  0  0
   18.9634   17.0192   21.8391 H   0  0  0  0  0  0  0  0  0  0  0  0
   20.3484   17.2271   22.9139 H   0  0  0  0  0  0  0  0  0  0  0  0
   20.7851   16.0705   21.1374 C   0  0  0  0  0  0  0  0  0  0  0  0
   20.4759   16.0034   20.0861 H   0  0  0  0  0  0  0  0  0  0  0  0
   20.5684   15.1068   21.6164 H   0  0  0  0  0  0  0  0  0  0  0  0
   21.8714   16.2268   21.1662 H   0  0  0  0  0  0  0  0  0  0  0  0
  1  2  1  0  0  0  0
  1  3  2  0  0  0  0
  1  4  1  0  0  0  0
  4  5  1  0  0  0  0
  4  6  1  0  0  0  0
  4  7  1  0  0  0  0
  7  8  1  0  0  0  0
  7  9  1  0  0  0  0
  7 10  1  0  0  0  0
 10 11  1  0  0  0  0
 10 12  1  0  0  0  0
 10 13  1  0  0  0  0
 13 14  1  0  0  0  0
 13 15  1  0  0  0  0
 13 16  1  0  0  0  0
 16 17  1  0  0  0  0
 16 18  1  0  0  0  0
 16 19  1  0  0  0  0
 19 20  1  0  0  0  0
 19 21  1  0  0  0  0
 19 22  1  0  0  0  0
M  END
> <VConfSearch Rank>
77

> <Conf_Id>
85

> <Delta U+W>
0.707

> <U+W>
-52.452

> <U>
8.925

> <W>
-61.378

> <W(PB)>
-63.661

> <W(SA)>
2.283

> <Valence>
7.881

> <Coulomb>
0.349

> <VdW>
0.695

> <VdW6>
-8.049

> <VdW12>
8.743

> <Bond>
0.156

> <Angle>
2.660

> <Pdih>
5.064

> <Idih>
0.001

> <Tether>
0.000

$$$$
VeraChem MOL file


 22 21  0  0  0  0  0  0  0  0999 V2000     
   23.1756   19.2748   22.4338 C   0  0  0  0  0  0  0  0  0  0  0  0
   23.7711   18.2396   22.2085 O   0  5  0  0  0  0  0  0  0  0  0  0
   23.4410   20.3330   21.8982 O   0  0  0  0  0  0  0  0  0  0  0  0
   22.0478   19.2518   23.4619 C   0  0  0  0  0  0  0  0  0  0  0  0
   22.1905   20.1151   24.1225 H   0  0  0  0  0  0  0  0  0  0  0  0
   22.1579   18.3549   24.0835 H   0  0  0  0  0  0  0  0  0  0  0  0
   20.6264   19.3035   22.8435 C   0  0  0  0  0  0  0  0  0  0  0  0
   19.9013   19.4413   23.6555 H   0  0  0  0  0  0  0  0  0  0  0  0
   20.5457   20.1807   22.1867 H   0  0  0  0  0  0  0  0  0  0  0  0
   20.2733   18.0211   22.0550 C   0  0  0  0  0  0  0  0  0  0  0  0
   20.2728   17.1611   22.7385 H   0  0  0  0  0  0  0  0  0  0  0  0
   21.0612   17.8240   21.3153 H   0  0  0  0  0  0  0  0  0  0  0  0
   18.9175   18.0865   21.3081 C   0  0  0  0  0  0  0  0  0  0  0  0
   18.9407   18.8861   20.5551 H   0  0  0  0  0  0  0  0  0  0  0  0
   18.8060   17.1500   20.7447 H   0  0  0  0  0  0  0  0  0  0  0  0
   17.6786   18.2475   22.2242 C   0  0  0  0  0  0  0  0  0  0  0  0
   17.8788   17.8173   23.2152 H   0  0  0  0  0  0  0  0  0  0  0  0
   16.8500   17.6639   21.7999 H   0  0  0  0  0  0  0  0  0  0  0  0
   17.2087   19.7130   22.3608 C   0  0  0  0  0  0  0  0  0  0  0  0
   17.9859   20.3525   22.7944 H   0  0  0  0  0  0  0  0  0  0  0  0
   16.3247   19.7738   23.0086 H   0  0  0  0  0  0  0  0  0  0  0  0
   16.9364   20.1281   21.3817 H   0  0  0  0  0  0  0  0  0  0  0  0
  1  2  1  0  0  0  0
  1  3  2  0  0  0  0
  1  4  1  0  0  0  0
  4  5  1  0  0  0  0
  4  6  1  0  0  0  0
  4  7  1  0  0  0  0
  7  8  1  0  0  0  0
  7  9  1  0  0  0  0
  7 10  1  0  0  0  0
 10 11  1  0  0  0  0
 10 12  1  0  0  0  0
 10 13  1  0  0  0  0
 13 14  1  0  0  0  0
 13 15  1  0  0  0  0
 13 16  1  0  0  0  0
 16 17  1  0  0  0  0
 16 18  1  0  0  0  0
 16 19  1  0  0  0  0
 19 20  1  0  0  0  0
 19 21  1  0  0  0  0
 19 22  1  0  0  0  0
M  END
> <VConfSearch Rank>
78

> <Conf_Id>
82

> <Delta U+W>
3.438

> <U+W>
-49.721

> <U>
11.773

> <W>
-61.495

> <W(PB)>
-63.749

> <W(SA)>
2.254

> <Valence>
10.419

> <Coulomb>
0.565

> <VdW>
0.789

> <VdW6>
-8.847

> <VdW12>
9.636

> <Bond>
0.200

> <Angle>
3.187

> <Pdih>
7.032

> <Idih>
0.001

> <Tether>
0.000

$$$$
VeraChem MOL file


 22 21  0  0  0  0  0  0  0  0999 V2000     
   20.8841   17.8446   19.3658 C   0  0  0  0  0  0  0  0  0  0  0  0
   20.3355   18.5335   18.5283 O   0  5  0  0  0  0  0  0  0  0  0  0
   22.0633   17.5531   19.3287 O   0  0  0  0  0  0  0  0  0  0  0  0
   20.0393   17.2977   20.5132 C   0  0  0  0  0  0  0  0  0  0  0  0
   20.5680   16.4498   20.9652 H   0  0  0  0  0  0  0  0  0  0  0  0
   19.1152   16.8998   20.0776 H   0  0  0  0  0  0  0  0  0  0  0  0
   19.6882   18.3494   21.5979 C   0  0  0  0  0  0  0  0  0  0  0  0
   19.2017   19.2135   21.1247 H   0  0  0  0  0  0  0  0  0  0  0  0
   18.9579   17.9054   22.2859 H   0  0  0  0  0  0  0  0  0  0  0  0
   20.9267   18.8154   22.3979 C   0  0  0  0  0  0  0  0  0  0  0  0
   21.7012   19.1567   21.6975 H   0  0  0  0  0  0  0  0  0  0  0  0
   21.3562   17.9598   22.9365 H   0  0  0  0  0  0  0  0  0  0  0  0
   20.6427   19.9641   23.3982 C   0  0  0  0  0  0  0  0  0  0  0  0
   21.5998   20.2436   23.8595 H   0  0  0  0  0  0  0  0  0  0  0  0
   20.3002   20.8574   22.8582 H   0  0  0  0  0  0  0  0  0  0  0  0
   19.6482   19.6073   24.5311 C   0  0  0  0  0  0  0  0  0  0  0  0
   19.9751   20.1047   25.4547 H   0  0  0  0  0  0  0  0  0  0  0  0
   19.6775   18.5288   24.7386 H   0  0  0  0  0  0  0  0  0  0  0  0
   18.2002   20.0571   24.2343 C   0  0  0  0  0  0  0  0  0  0  0  0
   18.1501   21.1452   24.0979 H   0  0  0  0  0  0  0  0  0  0  0  0
   17.5376   19.7926   25.0684 H   0  0  0  0  0  0  0  0  0  0  0  0
   17.8032   19.5846   23.3287 H   0  0  0  0  0  0  0  0  0  0  0  0
  1  2  1  0  0  0  0
  1  3  2  0  0  0  0
  1  4  1  0  0  0  0
  4  5  1  0  0  0  0
  4  6  1  0  0  0  0
  4  7  1  0  0  0  0
  7  8  1  0  0  0  0
  7  9  1  0  0  0  0
  7 10  1  0  0  0  0
 10 11  1  0  0  0  0
 10 12  1  0  0  0  0
 10 13  1  0  0  0  0
 13 14  1  0  0  0  0
 13 15  1  0  0  0  0
 13 16  1  0  0  0  0
 16 17  1  0  0  0  0
 16 18  1  0  0  0  0
 16 19  1  0  0  0  0
 19 20  1  0  0  0  0
 19 21  1  0  0  0  0
 19 22  1  0  0  0  0
M  END
> <VConfSearch Rank>
79

> <Conf_Id>
94

> <Delta U+W>
3.471

> <U+W>
-49.688

> <U>
11.773

> <W>
-61.461

> <W(PB)>
-63.710

> <W(SA)>
2.248

> <Valence>
10.419

> <Coulomb>
0.566

> <VdW>
0.789

> <VdW6>
-8.847

> <VdW12>
9.636

> <Bond>
0.200

> <Angle>
3.187

> <Pdih>
7.032

> <Idih>
0.001

> <Tether>
0.000

$$$$
VeraChem MOL file


 22 21  0  0  0  0  0  0  0  0999 V2000     
   19.0507   20.4806   25.2826 C   0  0  0  0  0  0  0  0  0  0  0  0
   19.7262   20.7719   26.2498 O   0  5  0  0  0  0  0  0  0  0  0  0
   17.8734   20.1870   25.3483 O   0  0  0  0  0  0  0  0  0  0  0  0
   19.7223   20.4642   23.9142 C   0  0  0  0  0  0  0  0  0  0  0  0
   20.5018   21.2353   23.9075 H   0  0  0  0  0  0  0  0  0  0  0  0
   18.9713   20.7535   23.1703 H   0  0  0  0  0  0  0  0  0  0  0  0
   20.3330   19.0831   23.5619 C   0  0  0  0  0  0  0  0  0  0  0  0
   21.0188   18.7848   24.3668 H   0  0  0  0  0  0  0  0  0  0  0  0
   19.5394   18.3245   23.5424 H   0  0  0  0  0  0  0  0  0  0  0  0
   21.1108   19.0748   22.2220 C   0  0  0  0  0  0  0  0  0  0  0  0
   21.5529   18.0807   22.0743 H   0  0  0  0  0  0  0  0  0  0  0  0
   21.9589   19.7684   22.3003 H   0  0  0  0  0  0  0  0  0  0  0  0
   20.2752   19.4543   20.9710 C   0  0  0  0  0  0  0  0  0  0  0  0
   19.9687   20.5060   21.0439 H   0  0  0  0  0  0  0  0  0  0  0  0
   20.9235   19.3954   20.0863 H   0  0  0  0  0  0  0  0  0  0  0  0
   19.0195   18.5815   20.7276 C   0  0  0  0  0  0  0  0  0  0  0  0
   18.4983   18.9583   19.8369 H   0  0  0  0  0  0  0  0  0  0  0  0
   18.3142   18.6924   21.5620 H   0  0  0  0  0  0  0  0  0  0  0  0
   19.3469   17.0874   20.5167 C   0  0  0  0  0  0  0  0  0  0  0  0
   20.0642   16.9545   19.6965 H   0  0  0  0  0  0  0  0  0  0  0  0
   18.4375   16.5264   20.2659 H   0  0  0  0  0  0  0  0  0  0  0  0
   19.7738   16.6412   21.4237 H   0  0  0  0  0  0  0  0  0  0  0  0
  1  2  1  0  0  0  0
  1  3  2  0  0  0  0
  1  4  1  0  0  0  0
  4  5  1  0  0  0  0
  4  6  1  0  0  0  0
  4  7  1  0  0  0  0
  7  8  1  0  0  0  0
  7  9  1  0  0  0  0
  7 10  1  0  0  0  0
 10 11  1  0  0  0  0
 10 12  1  0  0  0  0
 10 13  1  0  0  0  0
 13 14  1  0  0  0  0
 13 15  1  0  0  0  0
 13 16  1  0  0  0  0
 16 17  1  0  0  0  0
 16 18  1  0  0  0  0
 16 19  1  0  0  0  0
 19 20  1  0  0  0  0
 19 21  1  0  0  0  0
 19 22  1  0  0  0  0
M  END
> <VConfSearch Rank>
80

> <Conf_Id>
56

> <Delta U+W>
0.853

> <U+W>
-52.307

> <U>
8.874

> <W>
-61.181

> <W(PB)>
-63.413

> <W(SA)>
2.232

> <Valence>
8.479

> <Coulomb>
-0.357

> <VdW>
0.753

> <VdW6>
-9.081

> <VdW12>
9.833

> <Bond>
0.221

> <Angle>
3.208

> <Pdih>
5.050

> <Idih>
0.000

> <Tether>
0.000

$$$$
VeraChem MOL file


 22 21  0  0  0  0  0  0  0  0999 V2000     
   23.5290   19.3957   20.5717 C   0  0  0  0  0  0  0  0  0  0  0  0
   23.5972   18.2289   20.2368 O   0  5  0  0  0  0  0  0  0  0  0  0
   24.4199   20.1968   20.3706 O   0  0  0  0  0  0  0  0  0  0  0  0
   22.2754   19.9095   21.2818 C   0  0  0  0  0  0  0  0  0  0  0  0
   21.8772   20.7377   20.6839 H   0  0  0  0  0  0  0  0  0  0  0  0
   22.5935   20.3312   22.2425 H   0  0  0  0  0  0  0  0  0  0  0  0
   21.1654   18.8505   21.5157 C   0  0  0  0  0  0  0  0  0  0  0  0
   20.8558   18.4276   20.5499 H   0  0  0  0  0  0  0  0  0  0  0  0
   21.5727   18.0208   22.1101 H   0  0  0  0  0  0  0  0  0  0  0  0
   19.9396   19.4529   22.2360 C   0  0  0  0  0  0  0  0  0  0  0  0
   19.5342   20.2821   21.6399 H   0  0  0  0  0  0  0  0  0  0  0  0
   20.2516   19.8752   23.2011 H   0  0  0  0  0  0  0  0  0  0  0  0
   18.8367   18.3978   22.4678 C   0  0  0  0  0  0  0  0  0  0  0  0
   18.5244   17.9752   21.5029 H   0  0  0  0  0  0  0  0  0  0  0  0
   19.2416   17.5684   23.0639 H   0  0  0  0  0  0  0  0  0  0  0  0
   17.6114   18.9992   23.1875 C   0  0  0  0  0  0  0  0  0  0  0  0
   17.2023   19.8279   22.5931 H   0  0  0  0  0  0  0  0  0  0  0  0
   17.9196   19.4212   24.1541 H   0  0  0  0  0  0  0  0  0  0  0  0
   16.5124   17.9423   23.4171 C   0  0  0  0  0  0  0  0  0  0  0  0
   16.1628   17.5256   22.4634 H   0  0  0  0  0  0  0  0  0  0  0  0
   15.6493   18.3868   23.9295 H   0  0  0  0  0  0  0  0  0  0  0  0
   16.8854   17.1159   24.0362 H   0  0  0  0  0  0  0  0  0  0  0  0
  1  2  1  0  0  0  0
  1  3  2  0  0  0  0
  1  4  1  0  0  0  0
  4  5  1  0  0  0  0
  4  6  1  0  0  0  0
  4  7  1  0  0  0  0
  7  8  1  0  0  0  0
  7  9  1  0  0  0  0
  7 10  1  0  0  0  0
 10 11  1  0  0  0  0
 10 12  1  0  0  0  0
 10 13  1  0  0  0  0
 13 14  1  0  0  0  0
 13 15  1  0  0  0  0
 13 16  1  0  0  0  0
 16 17  1  0  0  0  0
 16 18  1  0  0  0  0
 16 19  1  0  0  0  0
 19 20  1  0  0  0  0
 19 21  1  0  0  0  0
 19 22  1  0  0  0  0
M  END
> <VConfSearch Rank>
81

> <Conf_Id>
0

> <Delta U+W>
0.000

> <U+W>
-53.159

> <U>
6.763

> <W>
-59.922

> <W(PB)>
-62.256

> <W(SA)>
2.334

> <Valence>
7.600

> <Coulomb>
-2.139

> <VdW>
1.302

> <VdW6>
-6.786

> <VdW12>
8.088

> <Bond>
0.134

> <Angle>
2.720

> <Pdih>
4.746

> <Idih>
0.000

> <Tether>
0.000

$$$$
VeraChem MOL file


 22 21  0  0  0  0  0  0  0  0999 V2000     
   20.4264   15.0297   21.7305 C   0  0  0  0  0  0  0  0  0  0  0  0
   19.7086   14.3302   22.4174 O   0  5  0  0  0  0  0  0  0  0  0  0
   21.5665   14.7349   21.4310 O   0  0  0  0  0  0  0  0  0  0  0  0
   19.8734   16.3614   21.2355 C   0  0  0  0  0  0  0  0  0  0  0  0
   18.7952   16.2436   21.0734 H   0  0  0  0  0  0  0  0  0  0  0  0
   20.3262   16.5770   20.2602 H   0  0  0  0  0  0  0  0  0  0  0  0
   20.1419   17.5272   22.2188 C   0  0  0  0  0  0  0  0  0  0  0  0
   19.6936   17.2901   23.1937 H   0  0  0  0  0  0  0  0  0  0  0  0
   21.2246   17.6235   22.3805 H   0  0  0  0  0  0  0  0  0  0  0  0
   19.5727   18.8635   21.6952 C   0  0  0  0  0  0  0  0  0  0  0  0
   18.4906   18.7634   21.5335 H   0  0  0  0  0  0  0  0  0  0  0  0
   20.0219   19.0969   20.7200 H   0  0  0  0  0  0  0  0  0  0  0  0
   19.8419   20.0237   22.6774 C   0  0  0  0  0  0  0  0  0  0  0  0
   19.3929   19.7907   23.6527 H   0  0  0  0  0  0  0  0  0  0  0  0
   20.9239   20.1241   22.8394 H   0  0  0  0  0  0  0  0  0  0  0  0
   19.2733   21.3597   22.1548 C   0  0  0  0  0  0  0  0  0  0  0  0
   18.1906   21.2637   21.9934 H   0  0  0  0  0  0  0  0  0  0  0  0
   19.7217   21.5971   21.1801 H   0  0  0  0  0  0  0  0  0  0  0  0
   19.5441   22.5157   23.1385 C   0  0  0  0  0  0  0  0  0  0  0  0
   20.6220   22.6547   23.2940 H   0  0  0  0  0  0  0  0  0  0  0  0
   19.0796   22.3187   24.1135 H   0  0  0  0  0  0  0  0  0  0  0  0
   19.1334   23.4573   22.7514 H   0  0  0  0  0  0  0  0  0  0  0  0
  1  2  1  0  0  0  0
  1  3  2  0  0  0  0
  1  4  1  0  0  0  0
  4  5  1  0  0  0  0
  4  6  1  0  0  0  0
  4  7  1  0  0  0  0
  7  8  1  0  0  0  0
  7  9  1  0  0  0  0
  7 10  1  0  0  0  0
 10 11  1  0  0  0  0
 10 12  1  0  0  0  0
 10 13  1  0  0  0  0
 13 14  1  0  0  0  0
 13 15  1  0  0  0  0
 13 16  1  0  0  0  0
 16 17  1  0  0  0  0
 16 18  1  0  0  0  0
 16 19  1  0  0  0  0
 19 20  1  0  0  0  0
 19 21  1  0  0  0  0
 19 22  1  0  0  0  0
M  END
> <VConfSearch Rank>
82

> <Conf_Id>
10

> <Delta U+W>
-1.291

> <U+W>
-54.451

> <U>
5.779

> <W>
-60.230

> <W(PB)>
-62.557

> <W(SA)>
2.328

> <Valence>
7.101

> <Coulomb>
-2.079

> <VdW>
0.757

> <VdW6>
-6.496

> <VdW12>
7.253

> <Bond>
0.100

> <Angle>
2.262

> <Pdih>
4.738

> <Idih>
0.001

> <Tether>
0.000

$$$$
VeraChem MOL file


 22 21  0  0  0  0  0  0  0  0999 V2000     
   19.6395   15.2029   21.1531 C   0  0  0  0  0  0  0  0  0  0  0  0
   20.1561   14.4526   21.9572 O   0  5  0  0  0  0  0  0  0  0  0  0
   18.7342   14.8751   20.4119 O   0  0  0  0  0  0  0  0  0  0  0  0
   20.1408   16.6410   21.0850 C   0  0  0  0  0  0  0  0  0  0  0  0
   20.0402   16.9884   20.0497 H   0  0  0  0  0  0  0  0  0  0  0  0
   21.2111   16.6405   21.3242 H   0  0  0  0  0  0  0  0  0  0  0  0
   19.3795   17.5897   22.0434 C   0  0  0  0  0  0  0  0  0  0  0  0
   18.3083   17.5684   21.7993 H   0  0  0  0  0  0  0  0  0  0  0  0
   19.4795   17.2215   23.0739 H   0  0  0  0  0  0  0  0  0  0  0  0
   19.9056   19.0388   21.9557 C   0  0  0  0  0  0  0  0  0  0  0  0
   19.8025   19.4050   20.9251 H   0  0  0  0  0  0  0  0  0  0  0  0
   20.9771   19.0476   22.1942 H   0  0  0  0  0  0  0  0  0  0  0  0
   19.1449   19.9811   22.9169 C   0  0  0  0  0  0  0  0  0  0  0  0
   18.0681   19.9072   22.7120 H   0  0  0  0  0  0  0  0  0  0  0  0
   19.2880   19.6467   23.9535 H   0  0  0  0  0  0  0  0  0  0  0  0
   19.5684   21.4628   22.7884 C   0  0  0  0  0  0  0  0  0  0  0  0
   18.9038   22.0747   23.4138 H   0  0  0  0  0  0  0  0  0  0  0  0
   19.4206   21.8027   21.7540 H   0  0  0  0  0  0  0  0  0  0  0  0
   21.0295   21.7203   23.2161 C   0  0  0  0  0  0  0  0  0  0  0  0
   21.2528   22.7948   23.1918 H   0  0  0  0  0  0  0  0  0  0  0  0
   21.7379   21.2190   22.5449 H   0  0  0  0  0  0  0  0  0  0  0  0
   21.2090   21.3609   24.2377 H   0  0  0  0  0  0  0  0  0  0  0  0
  1  2  1  0  0  0  0
  1  3  2  0  0  0  0
  1  4  1  0  0  0  0
  4  5  1  0  0  0  0
  4  6  1  0  0  0  0
  4  7  1  0  0  0  0
  7  8  1  0  0  0  0
  7  9  1  0  0  0  0
  7 10  1  0  0  0  0
 10 11  1  0  0  0  0
 10 12  1  0  0  0  0
 10 13  1  0  0  0  0
 13 14  1  0  0  0  0
 13 15  1  0  0  0  0
 13 16  1  0  0  0  0
 16 17  1  0  0  0  0
 16 18  1  0  0  0  0
 16 19  1  0  0  0  0
 19 20  1  0  0  0  0
 19 21  1  0  0  0  0
 19 22  1  0  0  0  0
M  END
> <VConfSearch Rank>
83

> <Conf_Id>
37

> <Delta U+W>
-0.345

> <U+W>
-53.504

> <U>
6.751

> <W>
-60.255

> <W(PB)>
-62.592

> <W(SA)>
2.336

> <Valence>
7.602

> <Coulomb>
-1.744

> <VdW>
0.894

> <VdW6>
-7.110

> <VdW12>
8.004

> <Bond>
0.131

> <Angle>
2.489

> <Pdih>
4.982

> <Idih>
0.001

> <Tether>
0.000

$$$$
VeraChem MOL file


 22 21  0  0  0  0  0  0  0  0999 V2000     
   22.7426   17.5188   24.2757 C   0  0  0  0  0  0  0  0  0  0  0  0
   22.7039   16.3062   24.3438 O   0  5  0  0  0  0  0  0  0  0  0  0
   23.2652   18.2237   25.1161 O   0  0  0  0  0  0  0  0  0  0  0  0
   22.0798   18.1943   23.0804 C   0  0  0  0  0  0  0  0  0  0  0  0
   22.1777   17.5279   22.2149 H   0  0  0  0  0  0  0  0  0  0  0  0
   22.6409   19.1082   22.8510 H   0  0  0  0  0  0  0  0  0  0  0  0
   20.5890   18.5310   23.3298 C   0  0  0  0  0  0  0  0  0  0  0  0
   20.0436   17.6078   23.5701 H   0  0  0  0  0  0  0  0  0  0  0  0
   20.5074   19.1875   24.2072 H   0  0  0  0  0  0  0  0  0  0  0  0
   19.9413   19.2139   22.1056 C   0  0  0  0  0  0  0  0  0  0  0  0
   20.0347   18.5532   21.2339 H   0  0  0  0  0  0  0  0  0  0  0  0
   20.4871   20.1375   21.8691 H   0  0  0  0  0  0  0  0  0  0  0  0
   18.4522   19.5445   22.3582 C   0  0  0  0  0  0  0  0  0  0  0  0
   17.8936   18.6171   22.5449 H   0  0  0  0  0  0  0  0  0  0  0  0
   18.3701   20.1468   23.2733 H   0  0  0  0  0  0  0  0  0  0  0  0
   17.7897   20.3223   21.1975 C   0  0  0  0  0  0  0  0  0  0  0  0
   18.3421   21.2539   21.0120 H   0  0  0  0  0  0  0  0  0  0  0  0
   16.7770   20.6181   21.5043 H   0  0  0  0  0  0  0  0  0  0  0  0
   17.6943   19.5060   19.8903 C   0  0  0  0  0  0  0  0  0  0  0  0
   17.1716   18.5553   20.0580 H   0  0  0  0  0  0  0  0  0  0  0  0
   18.6885   19.2854   19.4821 H   0  0  0  0  0  0  0  0  0  0  0  0
   17.1391   20.0668   19.1273 H   0  0  0  0  0  0  0  0  0  0  0  0
  1  2  1  0  0  0  0
  1  3  2  0  0  0  0
  1  4  1  0  0  0  0
  4  5  1  0  0  0  0
  4  6  1  0  0  0  0
  4  7  1  0  0  0  0
  7  8  1  0  0  0  0
  7  9  1  0  0  0  0
  7 10  1  0  0  0  0
 10 11  1  0  0  0  0
 10 12  1  0  0  0  0
 10 13  1  0  0  0  0
 13 14  1  0  0  0  0
 13 15  1  0  0  0  0
 13 16  1  0  0  0  0
 16 17  1  0  0  0  0
 16 18  1  0  0  0  0
 16 19  1  0  0  0  0
 19 20  1  0  0  0  0
 19 21  1  0  0  0  0
 19 22  1  0  0  0  0
M  END
> <VConfSearch Rank>
84

> <Conf_Id>
38

> <Delta U+W>
-0.439

> <U+W>
-53.598

> <U>
6.751

> <W>
-60.350

> <W(PB)>
-62.659

> <W(SA)>
2.309

> <Valence>
7.602

> <Coulomb>
-1.744

> <VdW>
0.893

> <VdW6>
-7.110

> <VdW12>
8.004

> <Bond>
0.131

> <Angle>
2.489

> <Pdih>
4.981

> <Idih>
0.001

> <Tether>
0.000

$$$$
VeraChem MOL file


 22 21  0  0  0  0  0  0  0  0999 V2000     
   16.9543   21.2626   21.4181 C   0  0  0  0  0  0  0  0  0  0  0  0
   15.8617   20.8522   21.0798 O   0  5  0  0  0  0  0  0  0  0  0  0
   17.3479   22.3903   21.1949 O   0  0  0  0  0  0  0  0  0  0  0  0
   17.8914   20.3027   22.1425 C   0  0  0  0  0  0  0  0  0  0  0  0
   17.2793   19.6131   22.7360 H   0  0  0  0  0  0  0  0  0  0  0  0
   18.4924   20.8912   22.8446 H   0  0  0  0  0  0  0  0  0  0  0  0
   18.8035   19.5083   21.1716 C   0  0  0  0  0  0  0  0  0  0  0  0
   18.1706   19.0104   20.4240 H   0  0  0  0  0  0  0  0  0  0  0  0
   19.4466   20.2060   20.6177 H   0  0  0  0  0  0  0  0  0  0  0  0
   19.6743   18.4385   21.8730 C   0  0  0  0  0  0  0  0  0  0  0  0
   20.1696   17.8418   21.0964 H   0  0  0  0  0  0  0  0  0  0  0  0
   19.0290   17.7478   22.4326 H   0  0  0  0  0  0  0  0  0  0  0  0
   20.7427   19.0388   22.8197 C   0  0  0  0  0  0  0  0  0  0  0  0
   21.3868   19.7308   22.2603 H   0  0  0  0  0  0  0  0  0  0  0  0
   20.2486   19.6332   23.5985 H   0  0  0  0  0  0  0  0  0  0  0  0
   21.6156   17.9693   23.5170 C   0  0  0  0  0  0  0  0  0  0  0  0
   20.9741   17.2681   24.0684 H   0  0  0  0  0  0  0  0  0  0  0  0
   22.2476   18.4658   24.2663 H   0  0  0  0  0  0  0  0  0  0  0  0
   22.5245   17.1878   22.5434 C   0  0  0  0  0  0  0  0  0  0  0  0
   21.9364   16.5759   21.8483 H   0  0  0  0  0  0  0  0  0  0  0  0
   23.1893   16.5129   23.0978 H   0  0  0  0  0  0  0  0  0  0  0  0
   23.1510   17.8716   21.9560 H   0  0  0  0  0  0  0  0  0  0  0  0
  1  2  1  0  0  0  0
  1  3  2  0  0  0  0
  1  4  1  0  0  0  0
  4  5  1  0  0  0  0
  4  6  1  0  0  0  0
  4  7  1  0  0  0  0
  7  8  1  0  0  0  0
  7  9  1  0  0  0  0
  7 10  1  0  0  0  0
 10 11  1  0  0  0  0
 10 12  1  0  0  0  0
 10 13  1  0  0  0  0
 13 14  1  0  0  0  0
 13 15  1  0  0  0  0
 13 16  1  0  0  0  0
 16 17  1  0  0  0  0
 16 18  1  0  0  0  0
 16 19  1  0  0  0  0
 19 20  1  0  0  0  0
 19 21  1  0  0  0  0
 19 22  1  0  0  0  0
M  END
> <VConfSearch Rank>
85

> <Conf_Id>
60

> <Delta U+W>
0.386

> <U+W>
-52.773

> <U>
7.689

> <W>
-60.463

> <W(PB)>
-62.772

> <W(SA)>
2.309

> <Valence>
8.197

> <Coulomb>
-1.561

> <VdW>
1.053

> <VdW6>
-7.737

> <VdW12>
8.790

> <Bond>
0.181

> <Angle>
2.780

> <Pdih>
5.235

> <Idih>
0.001

> <Tether>
0.000

$$$$
VeraChem MOL file


 22 21  0  0  0  0  0  0  0  0999 V2000     
   19.7068   15.8137   20.1241 C   0  0  0  0  0  0  0  0  0  0  0  0
   19.9471   14.8387   20.8083 O   0  5  0  0  0  0  0  0  0  0  0  0
   19.7735   15.8170   18.9108 O   0  0  0  0  0  0  0  0  0  0  0  0
   19.3223   17.1105   20.8275 C   0  0  0  0  0  0  0  0  0  0  0  0
   18.7641   16.8450   21.7322 H   0  0  0  0  0  0  0  0  0  0  0  0
   18.6379   17.6626   20.1724 H   0  0  0  0  0  0  0  0  0  0  0  0
   20.5513   17.9887   21.1794 C   0  0  0  0  0  0  0  0  0  0  0  0
   21.2053   17.4444   21.8746 H   0  0  0  0  0  0  0  0  0  0  0  0
   21.1389   18.1523   20.2654 H   0  0  0  0  0  0  0  0  0  0  0  0
   20.1793   19.3654   21.7803 C   0  0  0  0  0  0  0  0  0  0  0  0
   19.5190   19.9034   21.0866 H   0  0  0  0  0  0  0  0  0  0  0  0
   21.0980   19.9602   21.8603 H   0  0  0  0  0  0  0  0  0  0  0  0
   19.5073   19.2678   23.1721 C   0  0  0  0  0  0  0  0  0  0  0  0
   18.5867   18.6759   23.0930 H   0  0  0  0  0  0  0  0  0  0  0  0
   20.1668   18.7281   23.8652 H   0  0  0  0  0  0  0  0  0  0  0  0
   19.1397   20.6442   23.7743 C   0  0  0  0  0  0  0  0  0  0  0  0
   18.5502   20.4820   24.6872 H   0  0  0  0  0  0  0  0  0  0  0  0
   18.4891   21.1921   23.0787 H   0  0  0  0  0  0  0  0  0  0  0  0
   20.3697   21.5087   24.1271 C   0  0  0  0  0  0  0  0  0  0  0  0
   21.0521   20.9671   24.7950 H   0  0  0  0  0  0  0  0  0  0  0  0
   20.0576   22.4291   24.6373 H   0  0  0  0  0  0  0  0  0  0  0  0
   20.9266   21.8010   23.2282 H   0  0  0  0  0  0  0  0  0  0  0  0
  1  2  1  0  0  0  0
  1  3  2  0  0  0  0
  1  4  1  0  0  0  0
  4  5  1  0  0  0  0
  4  6  1  0  0  0  0
  4  7  1  0  0  0  0
  7  8  1  0  0  0  0
  7  9  1  0  0  0  0
  7 10  1  0  0  0  0
 10 11  1  0  0  0  0
 10 12  1  0  0  0  0
 10 13  1  0  0  0  0
 13 14  1  0  0  0  0
 13 15  1  0  0  0  0
 13 16  1  0  0  0  0
 16 17  1  0  0  0  0
 16 18  1  0  0  0  0
 16 19  1  0  0  0  0
 19 20  1  0  0  0  0
 19 21  1  0  0  0  0
 19 22  1  0  0  0  0
M  END
> <VConfSearch Rank>
86

> <Conf_Id>
28

> <Delta U+W>
0.351

> <U+W>
-52.808

> <U>
7.689

> <W>
-60.498

> <W(PB)>
-62.768

> <W(SA)>
2.270

> <Valence>
8.197

> <Coulomb>
-1.561

> <VdW>
1.053

> <VdW6>
-7.737

> <VdW12>
8.791

> <Bond>
0.181

> <Angle>
2.780

> <Pdih>
5.235

> <Idih>
0.001

> <Tether>
0.000

$$$$
VeraChem MOL file


 22 21  0  0  0  0  0  0  0  0999 V2000     
   19.2678   15.4990   23.6916 C   0  0  0  0  0  0  0  0  0  0  0  0
   18.9832   14.6173   22.9055 O   0  5  0  0  0  0  0  0  0  0  0  0
   20.0254   15.3460   24.6292 O   0  0  0  0  0  0  0  0  0  0  0  0
   18.6560   16.8791   23.4781 C   0  0  0  0  0  0  0  0  0  0  0  0
   18.5195   17.3470   24.4605 H   0  0  0  0  0  0  0  0  0  0  0  0
   17.6592   16.7456   23.0410 H   0  0  0  0  0  0  0  0  0  0  0  0
   19.5217   17.7869   22.5700 C   0  0  0  0  0  0  0  0  0  0  0  0
   20.5190   17.8886   23.0177 H   0  0  0  0  0  0  0  0  0  0  0  0
   19.6565   17.3006   21.5939 H   0  0  0  0  0  0  0  0  0  0  0  0
   18.8807   19.1804   22.3745 C   0  0  0  0  0  0  0  0  0  0  0  0
   18.7943   19.6883   23.3448 H   0  0  0  0  0  0  0  0  0  0  0  0
   17.8564   19.0525   21.9983 H   0  0  0  0  0  0  0  0  0  0  0  0
   19.6564   20.0823   21.3853 C   0  0  0  0  0  0  0  0  0  0  0  0
   19.7395   19.5766   20.4136 H   0  0  0  0  0  0  0  0  0  0  0  0
   19.0686   20.9940   21.2114 H   0  0  0  0  0  0  0  0  0  0  0  0
   21.0627   20.4808   21.8871 C   0  0  0  0  0  0  0  0  0  0  0  0
   21.6936   19.5886   21.9932 H   0  0  0  0  0  0  0  0  0  0  0  0
   20.9849   20.9392   22.8826 H   0  0  0  0  0  0  0  0  0  0  0  0
   21.7489   21.4677   20.9213 C   0  0  0  0  0  0  0  0  0  0  0  0
   21.1633   22.3909   20.8205 H   0  0  0  0  0  0  0  0  0  0  0  0
   21.8643   21.0241   19.9236 H   0  0  0  0  0  0  0  0  0  0  0  0
   22.7470   21.7383   21.2895 H   0  0  0  0  0  0  0  0  0  0  0  0
  1  2  1  0  0  0  0
  1  3  2  0  0  0  0
  1  4  1  0  0  0  0
  4  5  1  0  0  0  0
  4  6  1  0  0  0  0
  4  7  1  0  0  0  0
  7  8  1  0  0  0  0
  7  9  1  0  0  0  0
  7 10  1  0  0  0  0
 10 11  1  0  0  0  0
 10 12  1  0  0  0  0
 10 13  1  0  0  0  0
 13 14  1  0  0  0  0
 13 15  1  0  0  0  0
 13 16  1  0  0  0  0
 16 17  1  0  0  0  0
 16 18  1  0  0  0  0
 16 19  1  0  0  0  0
 19 20  1  0  0  0  0
 19 21  1  0  0  0  0
 19 22  1  0  0  0  0
M  END
> <VConfSearch Rank>
87

> <Conf_Id>
50

> <Delta U+W>
-0.486

> <U+W>
-53.646

> <U>
7.026

> <W>
-60.672

> <W(PB)>
-62.964

> <W(SA)>
2.292

> <Valence>
7.637

> <Coulomb>
-1.488

> <VdW>
0.877

> <VdW6>
-7.165

> <VdW12>
8.043

> <Bond>
0.134

> <Angle>
2.513

> <Pdih>
4.990

> <Idih>
0.001

> <Tether>
0.000

$$$$
VeraChem MOL file


 22 21  0  0  0  0  0  0  0  0999 V2000     
   18.0902   16.4336   24.3937 C   0  0  0  0  0  0  0  0  0  0  0  0
   18.7538   15.4596   24.6894 O   0  5  0  0  0  0  0  0  0  0  0  0
   16.9224   16.3771   24.0628 O   0  0  0  0  0  0  0  0  0  0  0  0
   18.7660   17.8000   24.4195 C   0  0  0  0  0  0  0  0  0  0  0  0
   19.5214   17.7912   25.2144 H   0  0  0  0  0  0  0  0  0  0  0  0
   18.0127   18.5475   24.6961 H   0  0  0  0  0  0  0  0  0  0  0  0
   19.4178   18.1745   23.0656 C   0  0  0  0  0  0  0  0  0  0  0  0
   20.1626   17.4121   22.7985 H   0  0  0  0  0  0  0  0  0  0  0  0
   18.6468   18.1569   22.2841 H   0  0  0  0  0  0  0  0  0  0  0  0
   20.0911   19.5655   23.1188 C   0  0  0  0  0  0  0  0  0  0  0  0
   20.8030   19.5856   23.9554 H   0  0  0  0  0  0  0  0  0  0  0  0
   19.3367   20.3346   23.3340 H   0  0  0  0  0  0  0  0  0  0  0  0
   20.8497   19.9330   21.8215 C   0  0  0  0  0  0  0  0  0  0  0  0
   21.3968   20.8704   21.9921 H   0  0  0  0  0  0  0  0  0  0  0  0
   21.6069   19.1662   21.6081 H   0  0  0  0  0  0  0  0  0  0  0  0
   19.9255   20.1081   20.5954 C   0  0  0  0  0  0  0  0  0  0  0  0
   19.1363   20.8365   20.8271 H   0  0  0  0  0  0  0  0  0  0  0  0
   19.4268   19.1591   20.3587 H   0  0  0  0  0  0  0  0  0  0  0  0
   20.7128   20.5827   19.3573 C   0  0  0  0  0  0  0  0  0  0  0  0
   21.4921   19.8584   19.0865 H   0  0  0  0  0  0  0  0  0  0  0  0
   21.1948   21.5511   19.5452 H   0  0  0  0  0  0  0  0  0  0  0  0
   20.0437   20.6991   18.4949 H   0  0  0  0  0  0  0  0  0  0  0  0
  1  2  1  0  0  0  0
  1  3  2  0  0  0  0
  1  4  1  0  0  0  0
  4  5  1  0  0  0  0
  4  6  1  0  0  0  0
  4  7  1  0  0  0  0
  7  8  1  0  0  0  0
  7  9  1  0  0  0  0
  7 10  1  0  0  0  0
 10 11  1  0  0  0  0
 10 12  1  0  0  0  0
 10 13  1  0  0  0  0
 13 14  1  0  0  0  0
 13 15  1  0  0  0  0
 13 16  1  0  0  0  0
 16 17  1  0  0  0  0
 16 18  1  0  0  0  0
 16 19  1  0  0  0  0
 19 20  1  0  0  0  0
 19 21  1  0  0  0  0
 19 22  1  0  0  0  0
M  END
> <VConfSearch Rank>
88

> <Conf_Id>
51

> <Delta U+W>
-0.517

> <U+W>
-53.677

> <U>
7.026

> <W>
-60.703

> <W(PB)>
-63.007

> <W(SA)>
2.304

> <Valence>
7.638

> <Coulomb>
-1.488

> <VdW>
0.877

> <VdW6>
-7.165

> <VdW12>
8.042

> <Bond>
0.134

> <Angle>
2.513

> <Pdih>
4.990

> <Idih>
0.001

> <Tether>
0.000

$$$$
VeraChem MOL file


 22 21  0  0  0  0  0  0  0  0999 V2000     
   20.0627   19.8010   25.6963 C   0  0  0  0  0  0  0  0  0  0  0  0
   19.2480   20.6587   25.9746 O   0  5  0  0  0  0  0  0  0  0  0  0
   20.0663   18.6911   26.1912 O   0  0  0  0  0  0  0  0  0  0  0  0
   21.1514   20.1452   24.6836 C   0  0  0  0  0  0  0  0  0  0  0  0
   21.9751   19.4301   24.7983 H   0  0  0  0  0  0  0  0  0  0  0  0
   21.5480   21.1317   24.9511 H   0  0  0  0  0  0  0  0  0  0  0  0
   20.6609   20.1655   23.2126 C   0  0  0  0  0  0  0  0  0  0  0  0
   19.8182   20.8647   23.1196 H   0  0  0  0  0  0  0  0  0  0  0  0
   21.4657   20.5538   22.5738 H   0  0  0  0  0  0  0  0  0  0  0  0
   20.2391   18.7675   22.7074 C   0  0  0  0  0  0  0  0  0  0  0  0
   19.4221   18.3795   23.3313 H   0  0  0  0  0  0  0  0  0  0  0  0
   21.0806   18.0693   22.8147 H   0  0  0  0  0  0  0  0  0  0  0  0
   19.7846   18.8057   21.2325 C   0  0  0  0  0  0  0  0  0  0  0  0
   18.9431   19.5040   21.1260 H   0  0  0  0  0  0  0  0  0  0  0  0
   20.6010   19.1907   20.6061 H   0  0  0  0  0  0  0  0  0  0  0  0
   19.3625   17.4100   20.7275 C   0  0  0  0  0  0  0  0  0  0  0  0
   18.5447   17.0224   21.3507 H   0  0  0  0  0  0  0  0  0  0  0  0
   20.2024   16.7090   20.8309 H   0  0  0  0  0  0  0  0  0  0  0  0
   18.9087   17.4521   19.2546 C   0  0  0  0  0  0  0  0  0  0  0  0
   18.0485   18.1225   19.1277 H   0  0  0  0  0  0  0  0  0  0  0  0
   18.6123   16.4521   18.9123 H   0  0  0  0  0  0  0  0  0  0  0  0
   19.7187   17.8069   18.6039 H   0  0  0  0  0  0  0  0  0  0  0  0
  1  2  1  0  0  0  0
  1  3  2  0  0  0  0
  1  4  1  0  0  0  0
  4  5  1  0  0  0  0
  4  6  1  0  0  0  0
  4  7  1  0  0  0  0
  7  8  1  0  0  0  0
  7  9  1  0  0  0  0
  7 10  1  0  0  0  0
 10 11  1  0  0  0  0
 10 12  1  0  0  0  0
 10 13  1  0  0  0  0
 13 14  1  0  0  0  0
 13 15  1  0  0  0  0
 13 16  1  0  0  0  0
 16 17  1  0  0  0  0
 16 18  1  0  0  0  0
 16 19  1  0  0  0  0
 19 20  1  0  0  0  0
 19 21  1  0  0  0  0
 19 22  1  0  0  0  0
M  END
> <VConfSearch Rank>
89

> <Conf_Id>
43

> <Delta U+W>
-0.129

> <U+W>
-53.289

> <U>
7.937

> <W>
-61.225

> <W(PB)>
-63.523

> <W(SA)>
2.297

> <Valence>
7.358

> <Coulomb>
-0.022

> <VdW>
0.601

> <VdW6>
-7.363

> <VdW12>
7.964

> <Bond>
0.121

> <Angle>
2.425

> <Pdih>
4.811

> <Idih>
0.000

> <Tether>
0.000

$$$$
VeraChem MOL file


 22 21  0  0  0  0  0  0  0  0999 V2000     
   17.4446   20.1696   24.7466 C   0  0  0  0  0  0  0  0  0  0  0  0
   17.4503   19.4887   25.7532 O   0  5  0  0  0  0  0  0  0  0  0  0
   16.4720   20.3025   24.0302 O   0  0  0  0  0  0  0  0  0  0  0  0
   18.7247   20.9121   24.3737 C   0  0  0  0  0  0  0  0  0  0  0  0
   19.1063   21.3862   25.2856 H   0  0  0  0  0  0  0  0  0  0  0  0
   18.4704   21.7209   23.6780 H   0  0  0  0  0  0  0  0  0  0  0  0
   19.8244   20.0056   23.7621 C   0  0  0  0  0  0  0  0  0  0  0  0
   20.7485   20.5895   23.6545 H   0  0  0  0  0  0  0  0  0  0  0  0
   20.0480   19.1849   24.4579 H   0  0  0  0  0  0  0  0  0  0  0  0
   19.4224   19.4300   22.3857 C   0  0  0  0  0  0  0  0  0  0  0  0
   19.1873   20.2538   21.6979 H   0  0  0  0  0  0  0  0  0  0  0  0
   18.5076   18.8300   22.4883 H   0  0  0  0  0  0  0  0  0  0  0  0
   20.5433   18.5569   21.7816 C   0  0  0  0  0  0  0  0  0  0  0  0
   21.4584   19.1555   21.6754 H   0  0  0  0  0  0  0  0  0  0  0  0
   20.7778   17.7333   22.4699 H   0  0  0  0  0  0  0  0  0  0  0  0
   20.1423   17.9811   20.4074 C   0  0  0  0  0  0  0  0  0  0  0  0
   19.9085   18.8022   19.7156 H   0  0  0  0  0  0  0  0  0  0  0  0
   19.2280   17.3801   20.5101 H   0  0  0  0  0  0  0  0  0  0  0  0
   21.2637   17.1093   19.8076 C   0  0  0  0  0  0  0  0  0  0  0  0
   22.1818   17.6941   19.6645 H   0  0  0  0  0  0  0  0  0  0  0  0
   20.9618   16.7084   18.8313 H   0  0  0  0  0  0  0  0  0  0  0  0
   21.4962   16.2614   20.4651 H   0  0  0  0  0  0  0  0  0  0  0  0
  1  2  1  0  0  0  0
  1  3  2  0  0  0  0
  1  4  1  0  0  0  0
  4  5  1  0  0  0  0
  4  6  1  0  0  0  0
  4  7  1  0  0  0  0
  7  8  1  0  0  0  0
  7  9  1  0  0  0  0
  7 10  1  0  0  0  0
 10 11  1  0  0  0  0
 10 12  1  0  0  0  0
 10 13  1  0  0  0  0
 13 14  1  0  0  0  0
 13 15  1  0  0  0  0
 13 16  1  0  0  0  0
 16 17  1  0  0  0  0
 16 18  1  0  0  0  0
 16 19  1  0  0  0  0
 19 20  1  0  0  0  0
 19 21  1  0  0  0  0
 19 22  1  0  0  0  0
M  END
> <VConfSearch Rank>
90

> <Conf_Id>
44

> <Delta U+W>
-0.155

> <U+W>
-53.314

> <U>
7.937

> <W>
-61.252

> <W(PB)>
-63.556

> <W(SA)>
2.304

> <Valence>
7.358

> <Coulomb>
-0.021

> <VdW>
0.600

> <VdW6>
-7.363

> <VdW12>
7.964

> <Bond>
0.121

> <Angle>
2.425

> <Pdih>
4.811

> <Idih>
0.001

> <Tether>
0.000

$$$$
VeraChem MOL file


 22 21  0  0  0  0  0  0  0  0999 V2000     
   21.2504   20.1182   19.2988 C   0  0  0  0  0  0  0  0  0  0  0  0
   21.0414   21.2988   19.1005 O   0  5  0  0  0  0  0  0  0  0  0  0
   21.0663   19.2536   18.4649 O   0  0  0  0  0  0  0  0  0  0  0  0
   21.7917   19.7030   20.6641 C   0  0  0  0  0  0  0  0  0  0  0  0
   22.6041   20.3943   20.9176 H   0  0  0  0  0  0  0  0  0  0  0  0
   22.2397   18.7059   20.5753 H   0  0  0  0  0  0  0  0  0  0  0  0
   20.7308   19.7144   21.7954 C   0  0  0  0  0  0  0  0  0  0  0  0
   21.2427   19.5563   22.7531 H   0  0  0  0  0  0  0  0  0  0  0  0
   20.2629   20.7073   21.8454 H   0  0  0  0  0  0  0  0  0  0  0  0
   19.6431   18.6308   21.6004 C   0  0  0  0  0  0  0  0  0  0  0  0
   20.1083   17.6357   21.5930 H   0  0  0  0  0  0  0  0  0  0  0  0
   19.1772   18.7614   20.6140 H   0  0  0  0  0  0  0  0  0  0  0  0
   18.5294   18.6747   22.6735 C   0  0  0  0  0  0  0  0  0  0  0  0
   18.0646   19.6702   22.6806 H   0  0  0  0  0  0  0  0  0  0  0  0
   17.7409   17.9663   22.3848 H   0  0  0  0  0  0  0  0  0  0  0  0
   19.0254   18.3205   24.0937 C   0  0  0  0  0  0  0  0  0  0  0  0
   19.7573   19.0638   24.4357 H   0  0  0  0  0  0  0  0  0  0  0  0
   19.5386   17.3492   24.0755 H   0  0  0  0  0  0  0  0  0  0  0  0
   17.8599   18.2649   25.1018 C   0  0  0  0  0  0  0  0  0  0  0  0
   17.3451   19.2328   25.1602 H   0  0  0  0  0  0  0  0  0  0  0  0
   18.2282   18.0157   26.1054 H   0  0  0  0  0  0  0  0  0  0  0  0
   17.1250   17.5025   24.8118 H   0  0  0  0  0  0  0  0  0  0  0  0
  1  2  1  0  0  0  0
  1  3  2  0  0  0  0
  1  4  1  0  0  0  0
  4  5  1  0  0  0  0
  4  6  1  0  0  0  0
  4  7  1  0  0  0  0
  7  8  1  0  0  0  0
  7  9  1  0  0  0  0
  7 10  1  0  0  0  0
 10 11  1  0  0  0  0
 10 12  1  0  0  0  0
 10 13  1  0  0  0  0
 13 14  1  0  0  0  0
 13 15  1  0  0  0  0
 13 16  1  0  0  0  0
 16 17  1  0  0  0  0
 16 18  1  0  0  0  0
 16 19  1  0  0  0  0
 19 20  1  0  0  0  0
 19 21  1  0  0  0  0
 19 22  1  0  0  0  0
M  END
> <VConfSearch Rank>
91

> <Conf_Id>
53

> <Delta U+W>
0.723

> <U+W>
-52.436

> <U>
8.587

> <W>
-61.022

> <W(PB)>
-63.285

> <W(SA)>
2.263

> <Valence>
7.933

> <Coulomb>
-0.124

> <VdW>
0.778

> <VdW6>
-7.981

> <VdW12>
8.759

> <Bond>
0.160

> <Angle>
2.698

> <Pdih>
5.074

> <Idih>
0.001

> <Tether>
0.000

$$$$
VeraChem MOL file


 22 21  0  0  0  0  0  0  0  0999 V2000     
   20.1939   21.5807   24.4122 C   0  0  0  0  0  0  0  0  0  0  0  0
   20.5834   21.1697   25.4873 O   0  5  0  0  0  0  0  0  0  0  0  0
   20.0720   22.7603   24.1471 O   0  0  0  0  0  0  0  0  0  0  0  0
   19.8612   20.5613   23.3286 C   0  0  0  0  0  0  0  0  0  0  0  0
   19.0661   20.9792   22.6998 H   0  0  0  0  0  0  0  0  0  0  0  0
   19.4577   19.6711   23.8242 H   0  0  0  0  0  0  0  0  0  0  0  0
   21.0889   20.1848   22.4614 C   0  0  0  0  0  0  0  0  0  0  0  0
   21.5536   21.1085   22.0895 H   0  0  0  0  0  0  0  0  0  0  0  0
   21.8419   19.6953   23.0943 H   0  0  0  0  0  0  0  0  0  0  0  0
   20.7605   19.2777   21.2489 C   0  0  0  0  0  0  0  0  0  0  0  0
   21.6936   19.1221   20.6903 H   0  0  0  0  0  0  0  0  0  0  0  0
   20.0836   19.8000   20.5591 H   0  0  0  0  0  0  0  0  0  0  0  0
   20.1830   17.8882   21.6198 C   0  0  0  0  0  0  0  0  0  0  0  0
   20.5763   17.1472   20.9104 H   0  0  0  0  0  0  0  0  0  0  0  0
   20.5428   17.5823   22.6117 H   0  0  0  0  0  0  0  0  0  0  0  0
   18.6387   17.8320   21.5659 C   0  0  0  0  0  0  0  0  0  0  0  0
   18.2970   18.0844   20.5526 H   0  0  0  0  0  0  0  0  0  0  0  0
   18.2011   18.5784   22.2395 H   0  0  0  0  0  0  0  0  0  0  0  0
   18.1103   16.4346   21.9474 C   0  0  0  0  0  0  0  0  0  0  0  0
   18.4988   15.6675   21.2648 H   0  0  0  0  0  0  0  0  0  0  0  0
   17.0140   16.4087   21.8977 H   0  0  0  0  0  0  0  0  0  0  0  0
   18.4096   16.1678   22.9695 H   0  0  0  0  0  0  0  0  0  0  0  0
  1  2  1  0  0  0  0
  1  3  2  0  0  0  0
  1  4  1  0  0  0  0
  4  5  1  0  0  0  0
  4  6  1  0  0  0  0
  4  7  1  0  0  0  0
  7  8  1  0  0  0  0
  7  9  1  0  0  0  0
  7 10  1  0  0  0  0
 10 11  1  0  0  0  0
 10 12  1  0  0  0  0
 10 13  1  0  0  0  0
 13 14  1  0  0  0  0
 13 15  1  0  0  0  0
 13 16  1  0  0  0  0
 16 17  1  0  0  0  0
 16 18  1  0  0  0  0
 16 19  1  0  0  0  0
 19 20  1  0  0  0  0
 19 21  1  0  0  0  0
 19 22  1  0  0  0  0
M  END
> <VConfSearch Rank>
92

> <Conf_Id>
5

> <Delta U+W>
2.167

> <U+W>
-50.993

> <U>
10.045

> <W>
-61.037

> <W(PB)>
-63.303

> <W(SA)>
2.266

> <Valence>
10.100

> <Coulomb>
-0.883

> <VdW>
0.828

> <VdW6>
-8.177

> <VdW12>
9.005

> <Bond>
0.182

> <Angle>
2.988

> <Pdih>
6.930

> <Idih>
0.001

> <Tether>
0.000

$$$$
VeraChem MOL file


 22 21  0  0  0  0  0  0  0  0999 V2000     
   18.8778   22.0272   23.0092 C   0  0  0  0  0  0  0  0  0  0  0  0
   19.6532   22.8069   22.4922 O   0  5  0  0  0  0  0  0  0  0  0  0
   17.9482   22.3699   23.7128 O   0  0  0  0  0  0  0  0  0  0  0  0
   19.0966   20.5358   22.7814 C   0  0  0  0  0  0  0  0  0  0  0  0
   19.5048   20.4113   21.7722 H   0  0  0  0  0  0  0  0  0  0  0  0
   18.1189   20.0399   22.8065 H   0  0  0  0  0  0  0  0  0  0  0  0
   20.0465   19.9017   23.8286 C   0  0  0  0  0  0  0  0  0  0  0  0
   21.0428   20.3554   23.7341 H   0  0  0  0  0  0  0  0  0  0  0  0
   19.6853   20.1602   24.8336 H   0  0  0  0  0  0  0  0  0  0  0  0
   20.1667   18.3600   23.7313 C   0  0  0  0  0  0  0  0  0  0  0  0
   19.1912   17.8925   23.9232 H   0  0  0  0  0  0  0  0  0  0  0  0
   20.8224   18.0275   24.5477 H   0  0  0  0  0  0  0  0  0  0  0  0
   20.7581   17.8414   22.3960 C   0  0  0  0  0  0  0  0  0  0  0  0
   21.4249   18.5976   21.9595 H   0  0  0  0  0  0  0  0  0  0  0  0
   21.3874   16.9667   22.6106 H   0  0  0  0  0  0  0  0  0  0  0  0
   19.6802   17.4177   21.3717 C   0  0  0  0  0  0  0  0  0  0  0  0
   19.0082   18.2551   21.1492 H   0  0  0  0  0  0  0  0  0  0  0  0
   19.0578   16.6209   21.8017 H   0  0  0  0  0  0  0  0  0  0  0  0
   20.3143   16.9152   20.0591 C   0  0  0  0  0  0  0  0  0  0  0  0
   20.9177   17.7025   19.5886 H   0  0  0  0  0  0  0  0  0  0  0  0
   19.5372   16.6117   19.3455 H   0  0  0  0  0  0  0  0  0  0  0  0
   20.9632   16.0488   20.2424 H   0  0  0  0  0  0  0  0  0  0  0  0
  1  2  1  0  0  0  0
  1  3  2  0  0  0  0
  1  4  1  0  0  0  0
  4  5  1  0  0  0  0
  4  6  1  0  0  0  0
  4  7  1  0  0  0  0
  7  8  1  0  0  0  0
  7  9  1  0  0  0  0
  7 10  1  0  0  0  0
 10 11  1  0  0  0  0
 10 12  1  0  0  0  0
 10 13  1  0  0  0  0
 13 14  1  0  0  0  0
 13 15  1  0  0  0  0
 13 16  1  0  0  0  0
 16 17  1  0  0  0  0
 16 18  1  0  0  0  0
 16 19  1  0  0  0  0
 19 20  1  0  0  0  0
 19 21  1  0  0  0  0
 19 22  1  0  0  0  0
M  END
> <VConfSearch Rank>
93

> <Conf_Id>
6

> <Delta U+W>
2.118

> <U+W>
-51.042

> <U>
10.045

> <W>
-61.086

> <W(PB)>
-63.356

> <W(SA)>
2.270

> <Valence>
10.100

> <Coulomb>
-0.883

> <VdW>
0.828

> <VdW6>
-8.177

> <VdW12>
9.004

> <Bond>
0.182

> <Angle>
2.988

> <Pdih>
6.930

> <Idih>
0.001

> <Tether>
0.000

$$$$
VeraChem MOL file


 22 21  0  0  0  0  0  0  0  0999 V2000     
   20.7080   21.2932   21.6983 C   0  0  0  0  0  0  0  0  0  0  0  0
   21.6653   21.5353   22.4072 O   0  5  0  0  0  0  0  0  0  0  0  0
   19.6761   21.9348   21.7235 O   0  0  0  0  0  0  0  0  0  0  0  0
   20.8316   20.1687   20.6719 C   0  0  0  0  0  0  0  0  0  0  0  0
   21.6272   20.4690   19.9802 H   0  0  0  0  0  0  0  0  0  0  0  0
   19.9071   20.1192   20.0840 H   0  0  0  0  0  0  0  0  0  0  0  0
   21.1727   18.7696   21.2578 C   0  0  0  0  0  0  0  0  0  0  0  0
   21.5896   18.1556   20.4481 H   0  0  0  0  0  0  0  0  0  0  0  0
   21.9702   18.8619   22.0081 H   0  0  0  0  0  0  0  0  0  0  0  0
   19.9663   18.0044   21.8563 C   0  0  0  0  0  0  0  0  0  0  0  0
   20.2930   16.9824   22.0925 H   0  0  0  0  0  0  0  0  0  0  0  0
   19.1766   17.9085   21.0987 H   0  0  0  0  0  0  0  0  0  0  0  0
   19.3838   18.6473   23.1353 C   0  0  0  0  0  0  0  0  0  0  0  0
   20.1927   18.8374   23.8541 H   0  0  0  0  0  0  0  0  0  0  0  0
   18.9342   19.6185   22.8931 H   0  0  0  0  0  0  0  0  0  0  0  0
   18.3123   17.7487   23.7883 C   0  0  0  0  0  0  0  0  0  0  0  0
   18.7507   16.7744   24.0448 H   0  0  0  0  0  0  0  0  0  0  0  0
   17.5034   17.5562   23.0699 H   0  0  0  0  0  0  0  0  0  0  0  0
   17.7260   18.3961   25.0589 C   0  0  0  0  0  0  0  0  0  0  0  0
   18.5097   18.5713   25.8075 H   0  0  0  0  0  0  0  0  0  0  0  0
   16.9656   17.7451   25.5096 H   0  0  0  0  0  0  0  0  0  0  0  0
   17.2532   19.3593   24.8260 H   0  0  0  0  0  0  0  0  0  0  0  0
  1  2  1  0  0  0  0
  1  3  2  0  0  0  0
  1  4  1  0  0  0  0
  4  5  1  0  0  0  0
  4  6  1  0  0  0  0
  4  7  1  0  0  0  0
  7  8  1  0  0  0  0
  7  9  1  0  0  0  0
  7 10  1  0  0  0  0
 10 11  1  0  0  0  0
 10 12  1  0  0  0  0
 10 13  1  0  0  0  0
 13 14  1  0  0  0  0
 13 15  1  0  0  0  0
 13 16  1  0  0  0  0
 16 17  1  0  0  0  0
 16 18  1  0  0  0  0
 16 19  1  0  0  0  0
 19 20  1  0  0  0  0
 19 21  1  0  0  0  0
 19 22  1  0  0  0  0
M  END
> <VConfSearch Rank>
94

> <Conf_Id>
8

> <Delta U+W>
1.886

> <U+W>
-51.274

> <U>
11.237

> <W>
-62.510

> <W(PB)>
-64.777

> <W(SA)>
2.267

> <Valence>
9.029

> <Coulomb>
1.667

> <VdW>
0.540

> <VdW6>
-8.825

> <VdW12>
9.365

> <Bond>
0.186

> <Angle>
3.195

> <Pdih>
5.642

> <Idih>
0.007

> <Tether>
0.000

$$$$
VeraChem MOL file


 22 21  0  0  0  0  0  0  0  0999 V2000     
   18.7095   17.1495   20.1312 C   0  0  0  0  0  0  0  0  0  0  0  0
   19.6904   16.4470   20.2759 O   0  5  0  0  0  0  0  0  0  0  0  0
   18.3208   17.5465   19.0502 O   0  0  0  0  0  0  0  0  0  0  0  0
   17.9031   17.5307   21.3696 C   0  0  0  0  0  0  0  0  0  0  0  0
   18.2064   16.8828   22.1996 H   0  0  0  0  0  0  0  0  0  0  0  0
   16.8536   17.2931   21.1601 H   0  0  0  0  0  0  0  0  0  0  0  0
   18.0200   19.0274   21.7685 C   0  0  0  0  0  0  0  0  0  0  0  0
   17.6333   19.6413   20.9433 H   0  0  0  0  0  0  0  0  0  0  0  0
   17.3666   19.2232   22.6293 H   0  0  0  0  0  0  0  0  0  0  0  0
   19.4580   19.4952   22.1034 C   0  0  0  0  0  0  0  0  0  0  0  0
   19.4300   20.5786   22.2749 H   0  0  0  0  0  0  0  0  0  0  0  0
   20.1117   19.3358   21.2350 H   0  0  0  0  0  0  0  0  0  0  0  0
   20.0617   18.7918   23.3437 C   0  0  0  0  0  0  0  0  0  0  0  0
   19.4009   18.9322   24.2098 H   0  0  0  0  0  0  0  0  0  0  0  0
   20.1115   17.7110   23.1587 H   0  0  0  0  0  0  0  0  0  0  0  0
   21.4864   19.2809   23.6943 C   0  0  0  0  0  0  0  0  0  0  0  0
   22.1458   19.1558   22.8243 H   0  0  0  0  0  0  0  0  0  0  0  0
   21.8934   18.6375   24.4865 H   0  0  0  0  0  0  0  0  0  0  0  0
   21.5317   20.7473   24.1764 C   0  0  0  0  0  0  0  0  0  0  0  0
   21.2491   21.4424   23.3762 H   0  0  0  0  0  0  0  0  0  0  0  0
   22.5458   21.0124   24.5025 H   0  0  0  0  0  0  0  0  0  0  0  0
   20.8527   20.9032   25.0247 H   0  0  0  0  0  0  0  0  0  0  0  0
  1  2  1  0  0  0  0
  1  3  2  0  0  0  0
  1  4  1  0  0  0  0
  4  5  1  0  0  0  0
  4  6  1  0  0  0  0
  4  7  1  0  0  0  0
  7  8  1  0  0  0  0
  7  9  1  0  0  0  0
  7 10  1  0  0  0  0
 10 11  1  0  0  0  0
 10 12  1  0  0  0  0
 10 13  1  0  0  0  0
 13 14  1  0  0  0  0
 13 15  1  0  0  0  0
 13 16  1  0  0  0  0
 16 17  1  0  0  0  0
 16 18  1  0  0  0  0
 16 19  1  0  0  0  0
 19 20  1  0  0  0  0
 19 21  1  0  0  0  0
 19 22  1  0  0  0  0
M  END
> <VConfSearch Rank>
95

> <Conf_Id>
93

> <Delta U+W>
1.836

> <U+W>
-51.323

> <U>
10.427

> <W>
-61.751

> <W(PB)>
-63.980

> <W(SA)>
2.230

> <Valence>
8.446

> <Coulomb>
1.306

> <VdW>
0.676

> <VdW6>
-8.928

> <VdW12>
9.604

> <Bond>
0.209

> <Angle>
3.066

> <Pdih>
5.170

> <Idih>
0.001

> <Tether>
0.000

$$$$
VeraChem MOL file


 22 21  0  0  0  0  0  0  0  0999 V2000     
   17.1959   17.6640   21.3989 C   0  0  0  0  0  0  0  0  0  0  0  0
   16.0591   17.8599   21.7820 O   0  5  0  0  0  0  0  0  0  0  0  0
   17.7716   16.6006   21.5194 O   0  0  0  0  0  0  0  0  0  0  0  0
   17.9272   18.8081   20.7023 C   0  0  0  0  0  0  0  0  0  0  0  0
   17.2577   19.1975   19.9264 H   0  0  0  0  0  0  0  0  0  0  0  0
   18.8005   18.4010   20.1805 H   0  0  0  0  0  0  0  0  0  0  0  0
   18.3428   19.9671   21.6494 C   0  0  0  0  0  0  0  0  0  0  0  0
   18.8083   20.7669   21.0578 H   0  0  0  0  0  0  0  0  0  0  0  0
   17.4353   20.4008   22.0919 H   0  0  0  0  0  0  0  0  0  0  0  0
   19.3032   19.5535   22.7919 C   0  0  0  0  0  0  0  0  0  0  0  0
   18.8311   18.7783   23.4110 H   0  0  0  0  0  0  0  0  0  0  0  0
   19.4482   20.4242   23.4438 H   0  0  0  0  0  0  0  0  0  0  0  0
   20.6784   19.0502   22.2892 C   0  0  0  0  0  0  0  0  0  0  0  0
   20.5314   18.1642   21.6581 H   0  0  0  0  0  0  0  0  0  0  0  0
   21.1450   19.8149   21.6535 H   0  0  0  0  0  0  0  0  0  0  0  0
   21.6468   18.6652   23.4320 C   0  0  0  0  0  0  0  0  0  0  0  0
   22.5339   18.1872   22.9943 H   0  0  0  0  0  0  0  0  0  0  0  0
   21.1761   17.9117   24.0785 H   0  0  0  0  0  0  0  0  0  0  0  0
   22.1036   19.8703   24.2829 C   0  0  0  0  0  0  0  0  0  0  0  0
   21.2667   20.3095   24.8396 H   0  0  0  0  0  0  0  0  0  0  0  0
   22.5462   20.6517   23.6517 H   0  0  0  0  0  0  0  0  0  0  0  0
   22.8603   19.5581   25.0142 H   0  0  0  0  0  0  0  0  0  0  0  0
  1  2  1  0  0  0  0
  1  3  2  0  0  0  0
  1  4  1  0  0  0  0
  4  5  1  0  0  0  0
  4  6  1  0  0  0  0
  4  7  1  0  0  0  0
  7  8  1  0  0  0  0
  7  9  1  0  0  0  0
  7 10  1  0  0  0  0
 10 11  1  0  0  0  0
 10 12  1  0  0  0  0
 10 13  1  0  0  0  0
 13 14  1  0  0  0  0
 13 15  1  0  0  0  0
 13 16  1  0  0  0  0
 16 17  1  0  0  0  0
 16 18  1  0  0  0  0
 16 19  1  0  0  0  0
 19 20  1  0  0  0  0
 19 21  1  0  0  0  0
 19 22  1  0  0  0  0
M  END
> <VConfSearch Rank>
96

> <Conf_Id>
70

> <Delta U+W>
1.803

> <U+W>
-51.356

> <U>
10.428

> <W>
-61.784

> <W(PB)>
-64.014

> <W(SA)>
2.230

> <Valence>
8.445

> <Coulomb>
1.306

> <VdW>
0.676

> <VdW6>
-8.929

> <VdW12>
9.605

> <Bond>
0.209

> <Angle>
3.066

> <Pdih>
5.170

> <Idih>
0.001

> <Tether>
0.000

$$$$
VeraChem MOL file


 22 21  0  0  0  0  0  0  0  0999 V2000     
   17.1151   19.3115   24.4753 C   0  0  0  0  0  0  0  0  0  0  0  0
   17.4926   20.1326   25.2878 O   0  5  0  0  0  0  0  0  0  0  0  0
   16.7366   18.1958   24.7730 O   0  0  0  0  0  0  0  0  0  0  0  0
   17.0963   19.7129   23.0030 C   0  0  0  0  0  0  0  0  0  0  0  0
   16.6571   20.7155   22.9415 H   0  0  0  0  0  0  0  0  0  0  0  0
   16.4210   19.0371   22.4644 H   0  0  0  0  0  0  0  0  0  0  0  0
   18.4954   19.7184   22.3340 C   0  0  0  0  0  0  0  0  0  0  0  0
   18.4065   20.1413   21.3243 H   0  0  0  0  0  0  0  0  0  0  0  0
   19.1579   20.3856   22.9011 H   0  0  0  0  0  0  0  0  0  0  0  0
   19.1131   18.3025   22.2423 C   0  0  0  0  0  0  0  0  0  0  0  0
   18.3964   17.6318   21.7491 H   0  0  0  0  0  0  0  0  0  0  0  0
   19.2709   17.8980   23.2516 H   0  0  0  0  0  0  0  0  0  0  0  0
   20.4453   18.2613   21.4566 C   0  0  0  0  0  0  0  0  0  0  0  0
   20.7454   17.2114   21.3356 H   0  0  0  0  0  0  0  0  0  0  0  0
   20.2884   18.6581   20.4443 H   0  0  0  0  0  0  0  0  0  0  0  0
   21.5914   19.0340   22.1475 C   0  0  0  0  0  0  0  0  0  0  0  0
   21.7130   18.6730   23.1781 H   0  0  0  0  0  0  0  0  0  0  0  0
   21.3445   20.1020   22.2091 H   0  0  0  0  0  0  0  0  0  0  0  0
   22.9228   18.8702   21.3869 C   0  0  0  0  0  0  0  0  0  0  0  0
   23.2213   17.8148   21.3393 H   0  0  0  0  0  0  0  0  0  0  0  0
   23.7254   19.4269   21.8879 H   0  0  0  0  0  0  0  0  0  0  0  0
   22.8372   19.2491   20.3600 H   0  0  0  0  0  0  0  0  0  0  0  0
  1  2  1  0  0  0  0
  1  3  2  0  0  0  0
  1  4  1  0  0  0  0
  4  5  1  0  0  0  0
  4  6  1  0  0  0  0
  4  7  1  0  0  0  0
  7  8  1  0  0  0  0
  7  9  1  0  0  0  0
  7 10  1  0  0  0  0
 10 11  1  0  0  0  0
 10 12  1  0  0  0  0
 10 13  1  0  0  0  0
 13 14  1  0  0  0  0
 13 15  1  0  0  0  0
 13 16  1  0  0  0  0
 16 17  1  0  0  0  0
 16 18  1  0  0  0  0
 16 19  1  0  0  0  0
 19 20  1  0  0  0  0
 19 21  1  0  0  0  0
 19 22  1  0  0  0  0
M  END
> <VConfSearch Rank>
97

> <Conf_Id>
85

> <Delta U+W>
0.707

> <U+W>
-52.452

> <U>
8.925

> <W>
-61.378

> <W(PB)>
-63.661

> <W(SA)>
2.283

> <Valence>
7.881

> <Coulomb>
0.349

> <VdW>
0.695

> <VdW6>
-8.049

> <VdW12>
8.743

> <Bond>
0.156

> <Angle>
2.660

> <Pdih>
5.064

> <Idih>
0.001

> <Tether>
0.000

$$$$
VeraChem MOL file


 22 21  0  0  0  0  0  0  0  0999 V2000     
   16.5426   19.0901   22.1368 C   0  0  0  0  0  0  0  0  0  0  0  0
   16.1727   19.2914   20.9969 O   0  5  0  0  0  0  0  0  0  0  0  0
   16.0526   18.2483   22.8637 O   0  0  0  0  0  0  0  0  0  0  0  0
   17.6682   19.9561   22.6959 C   0  0  0  0  0  0  0  0  0  0  0  0
   17.3600   20.2877   23.6944 H   0  0  0  0  0  0  0  0  0  0  0  0
   17.7590   20.8566   22.0764 H   0  0  0  0  0  0  0  0  0  0  0  0
   19.0364   19.2318   22.7913 C   0  0  0  0  0  0  0  0  0  0  0  0
   19.7308   19.8768   23.3441 H   0  0  0  0  0  0  0  0  0  0  0  0
   18.9205   18.3079   23.3746 H   0  0  0  0  0  0  0  0  0  0  0  0
   19.6356   18.9064   21.4035 C   0  0  0  0  0  0  0  0  0  0  0  0
   19.8278   19.8419   20.8607 H   0  0  0  0  0  0  0  0  0  0  0  0
   18.8934   18.3550   20.8103 H   0  0  0  0  0  0  0  0  0  0  0  0
   20.9345   18.0633   21.4531 C   0  0  0  0  0  0  0  0  0  0  0  0
   20.7315   17.0858   21.9116 H   0  0  0  0  0  0  0  0  0  0  0  0
   21.2292   17.8505   20.4164 H   0  0  0  0  0  0  0  0  0  0  0  0
   22.1283   18.7510   22.1615 C   0  0  0  0  0  0  0  0  0  0  0  0
   22.0400   19.8434   22.0837 H   0  0  0  0  0  0  0  0  0  0  0  0
   23.0530   18.4812   21.6329 H   0  0  0  0  0  0  0  0  0  0  0  0
   22.2840   18.3296   23.6398 C   0  0  0  0  0  0  0  0  0  0  0  0
   21.3981   18.5841   24.2326 H   0  0  0  0  0  0  0  0  0  0  0  0
   23.1471   18.8335   24.0937 H   0  0  0  0  0  0  0  0  0  0  0  0
   22.4463   17.2470   23.7217 H   0  0  0  0  0  0  0  0  0  0  0  0
  1  2  1  0  0  0  0
  1  3  2  0  0  0  0
  1  4  1  0  0  0  0
  4  5  1  0  0  0  0
  4  6  1  0  0  0  0
  4  7  1  0  0  0  0
  7  8  1  0  0  0  0
  7  9  1  0  0  0  0
  7 10  1  0  0  0  0
 10 11  1  0  0  0  0
 10 12  1  0  0  0  0
 10 13  1  0  0  0  0
 13 14  1  0  0  0  0
 13 15  1  0  0  0  0
 13 16  1  0  0  0  0
 16 17  1  0  0  0  0
 16 18  1  0  0  0  0
 16 19  1  0  0  0  0
 19 20  1  0  0  0  0
 19 21  1  0  0  0  0
 19 22  1  0  0  0  0
M  END
> <VConfSearch Rank>
98

> <Conf_Id>
82

> <Delta U+W>
3.438

> <U+W>
-49.721

> <U>
11.773

> <W>
-61.495

> <W(PB)>
-63.749

> <W(SA)>
2.254

> <Valence>
10.419

> <Coulomb>
0.565

> <VdW>
0.789

> <VdW6>
-8.847

> <VdW12>
9.636

> <Bond>
0.200

> <Angle>
3.187

> <Pdih>
7.032

> <Idih>
0.001

> <Tether>
0.000

$$$$
VeraChem MOL file


 22 21  0  0  0  0  0  0  0  0999 V2000     
   19.5499   22.1390   21.6618 C   0  0  0  0  0  0  0  0  0  0  0  0
   19.1421   22.2306   20.5206 O   0  5  0  0  0  0  0  0  0  0  0  0
   19.0907   22.7715   22.5923 O   0  0  0  0  0  0  0  0  0  0  0  0
   20.7176   21.1949   21.9348 C   0  0  0  0  0  0  0  0  0  0  0  0
   21.1782   21.4736   22.8903 H   0  0  0  0  0  0  0  0  0  0  0  0
   21.4694   21.3717   21.1566 H   0  0  0  0  0  0  0  0  0  0  0  0
   20.3284   19.6935   21.9458 C   0  0  0  0  0  0  0  0  0  0  0  0
   19.8261   19.4396   21.0021 H   0  0  0  0  0  0  0  0  0  0  0  0
   21.2491   19.0984   21.9909 H   0  0  0  0  0  0  0  0  0  0  0  0
   19.4209   19.3227   23.1416 C   0  0  0  0  0  0  0  0  0  0  0  0
   18.5529   19.9958   23.1581 H   0  0  0  0  0  0  0  0  0  0  0  0
   19.9636   19.4995   24.0801 H   0  0  0  0  0  0  0  0  0  0  0  0
   18.8983   17.8643   23.1154 C   0  0  0  0  0  0  0  0  0  0  0  0
   18.2263   17.7395   23.9755 H   0  0  0  0  0  0  0  0  0  0  0  0
   18.2754   17.7035   22.2249 H   0  0  0  0  0  0  0  0  0  0  0  0
   19.9996   16.7784   23.2034 C   0  0  0  0  0  0  0  0  0  0  0  0
   19.6204   15.9419   23.8066 H   0  0  0  0  0  0  0  0  0  0  0  0
   20.8768   17.1674   23.7387 H   0  0  0  0  0  0  0  0  0  0  0  0
   20.4168   16.2210   21.8242 C   0  0  0  0  0  0  0  0  0  0  0  0
   19.5596   15.7640   21.3128 H   0  0  0  0  0  0  0  0  0  0  0  0
   21.1889   15.4494   21.9396 H   0  0  0  0  0  0  0  0  0  0  0  0
   20.8208   17.0039   21.1724 H   0  0  0  0  0  0  0  0  0  0  0  0
  1  2  1  0  0  0  0
  1  3  2  0  0  0  0
  1  4  1  0  0  0  0
  4  5  1  0  0  0  0
  4  6  1  0  0  0  0
  4  7  1  0  0  0  0
  7  8  1  0  0  0  0
  7  9  1  0  0  0  0
  7 10  1  0  0  0  0
 10 11  1  0  0  0  0
 10 12  1  0  0  0  0
 10 13  1  0  0  0  0
 13 14  1  0  0  0  0
 13 15  1  0  0  0  0
 13 16  1  0  0  0  0
 16 17  1  0  0  0  0
 16 18  1  0  0  0  0
 16 19  1  0  0  0  0
 19 20  1  0  0  0  0
 19 21  1  0  0  0  0
 19 22  1  0  0  0  0
M  END
> <VConfSearch Rank>
99

> <Conf_Id>
94

> <Delta U+W>
3.471

> <U+W>
-49.688

> <U>
11.773

> <W>
-61.461

> <W(PB)>
-63.710

> <W(SA)>
2.248

> <Valence>
10.419

> <Coulomb>
0.566

> <VdW>
0.789

> <VdW6>
-8.847

> <VdW12>
9.636

> <Bond>
0.200

> <Angle>
3.187

> <Pdih>
7.032

> <Idih>
0.001

> <Tether>
0.000

$$$$
VeraChem MOL file


 22 21  0  0  0  0  0  0  0  0999 V2000     
   20.4391   15.9048   23.1176 C   0  0  0  0  0  0  0  0  0  0  0  0
   21.4410   15.2244   23.0173 O   0  5  0  0  0  0  0  0  0  0  0  0
   19.3119   15.4550   23.0580 O   0  0  0  0  0  0  0  0  0  0  0  0
   20.6061   17.4079   23.3094 C   0  0  0  0  0  0  0  0  0  0  0  0
   21.5230   17.5784   23.8861 H   0  0  0  0  0  0  0  0  0  0  0  0
   19.7671   17.7618   23.9191 H   0  0  0  0  0  0  0  0  0  0  0  0
   20.6672   18.1812   21.9667 C   0  0  0  0  0  0  0  0  0  0  0  0
   21.4641   17.7487   21.3462 H   0  0  0  0  0  0  0  0  0  0  0  0
   19.7326   18.0273   21.4111 H   0  0  0  0  0  0  0  0  0  0  0  0
   20.9418   19.6963   22.1378 C   0  0  0  0  0  0  0  0  0  0  0  0
   21.0218   20.1571   21.1445 H   0  0  0  0  0  0  0  0  0  0  0  0
   21.9267   19.8273   22.6062 H   0  0  0  0  0  0  0  0  0  0  0  0
   19.8887   20.4677   22.9764 C   0  0  0  0  0  0  0  0  0  0  0  0
   19.9235   20.1164   24.0160 H   0  0  0  0  0  0  0  0  0  0  0  0
   20.1776   21.5269   23.0120 H   0  0  0  0  0  0  0  0  0  0  0  0
   18.4322   20.3654   22.4608 C   0  0  0  0  0  0  0  0  0  0  0  0
   17.7786   20.9247   23.1442 H   0  0  0  0  0  0  0  0  0  0  0  0
   18.0900   19.3226   22.4985 H   0  0  0  0  0  0  0  0  0  0  0  0
   18.2504   20.9225   21.0323 C   0  0  0  0  0  0  0  0  0  0  0  0
   18.6020   21.9603   20.9678 H   0  0  0  0  0  0  0  0  0  0  0  0
   17.1913   20.9050   20.7449 H   0  0  0  0  0  0  0  0  0  0  0  0
   18.8046   20.3245   20.2980 H   0  0  0  0  0  0  0  0  0  0  0  0
  1  2  1  0  0  0  0
  1  3  2  0  0  0  0
  1  4  1  0  0  0  0
  4  5  1  0  0  0  0
  4  6  1  0  0  0  0
  4  7  1  0  0  0  0
  7  8  1  0  0  0  0
  7  9  1  0  0  0  0
  7 10  1  0  0  0  0
 10 11  1  0  0  0  0
 10 12  1  0  0  0  0
 10 13  1  0  0  0  0
 13 14  1  0  0  0  0
 13 15  1  0  0  0  0
 13 16  1  0  0  0  0
 16 17  1  0  0  0  0
 16 18  1  0  0  0  0
 16 19  1  0  0  0  0
 19 20  1  0  0  0  0
 19 21  1  0  0  0  0
 19 22  1  0  0  0  0
M  END
> <VConfSearch Rank>
100

> <Conf_Id>
56

> <Delta U+W>
0.853

> <U+W>
-52.307

> <U>
8.874

> <W>
-61.181

> <W(PB)>
-63.413

> <W(SA)>
2.232

> <Valence>
8.479

> <Coulomb>
-0.357

> <VdW>
0.753

> <VdW6>
-9.081

> <VdW12>
9.833

> <Bond>
0.221

> <Angle>
3.208

> <Pdih>
5.050

> <Idih>
0.000

> <Tether>
0.000

$$$$
VeraChem MOL file


 22 21  0  0  0  0  0  0  0  0999 V2000     
   23.0905   21.2505   22.8427 C   0  0  0  0  0  0  0  0  0  0  0  0
   22.6138   21.7410   23.8480 O   0  5  0  0  0  0  0  0  0  0  0  0
   24.1929   21.5398   22.4219 O   0  0  0  0  0  0  0  0  0  0  0  0
   22.2890   20.2179   22.0484 C   0  0  0  0  0  0  0  0  0  0  0  0
   22.8955   19.3064   21.9916 H   0  0  0  0  0  0  0  0  0  0  0  0
   22.1867   20.5996   21.0258 H   0  0  0  0  0  0  0  0  0  0  0  0
   20.8881   19.8806   22.6248 C   0  0  0  0  0  0  0  0  0  0  0  0
   20.9973   19.5047   23.6516 H   0  0  0  0  0  0  0  0  0  0  0  0
   20.2878   20.7990   22.6846 H   0  0  0  0  0  0  0  0  0  0  0  0
   20.1500   18.8326   21.7637 C   0  0  0  0  0  0  0  0  0  0  0  0
   20.7521   17.9154   21.7053 H   0  0  0  0  0  0  0  0  0  0  0  0
   20.0422   19.2106   20.7377 H   0  0  0  0  0  0  0  0  0  0  0  0
   18.7568   18.4986   22.3387 C   0  0  0  0  0  0  0  0  0  0  0  0
   18.8641   18.1207   23.3647 H   0  0  0  0  0  0  0  0  0  0  0  0
   18.1543   19.4155   22.3972 H   0  0  0  0  0  0  0  0  0  0  0  0
   18.0187   17.4514   21.4787 C   0  0  0  0  0  0  0  0  0  0  0  0
   18.6174   16.5319   21.4195 H   0  0  0  0  0  0  0  0  0  0  0  0
   17.9077   17.8268   20.4519 H   0  0  0  0  0  0  0  0  0  0  0  0
   16.6278   17.1206   22.0562 C   0  0  0  0  0  0  0  0  0  0  0  0
   16.7112   16.7131   23.0723 H   0  0  0  0  0  0  0  0  0  0  0  0
   16.1174   16.3750   21.4328 H   0  0  0  0  0  0  0  0  0  0  0  0
   15.9961   18.0176   22.0974 H   0  0  0  0  0  0  0  0  0  0  0  0
  1  2  1  0  0  0  0
  1  3  2  0  0  0  0
  1  4  1  0  0  0  0
  4  5  1  0  0  0  0
  4  6  1  0  0  0  0
  4  7  1  0  0  0  0
  7  8  1  0  0  0  0
  7  9  1  0  0  0  0
  7 10  1  0  0  0  0
 10 11  1  0  0  0  0
 10 12  1  0  0  0  0
 10 13  1  0  0  0  0
 13 14  1  0  0  0  0
 13 15  1  0  0  0  0
 13 16  1  0  0  0  0
 16 17  1  0  0  0  0
 16 18  1  0  0  0  0
 16 19  1  0  0  0  0
 19 20  1  0  0  0  0
 19 21  1  0  0  0  0
 19 22  1  0  0  0  0
M  END
> <VConfSearch Rank>
101

> <Conf_Id>
0

> <Delta U+W>
0.000

> <U+W>
-53.159

> <U>
6.763

> <W>
-59.922

> <W(PB)>
-62.256

> <W(SA)>
2.334

> <Valence>
7.600

> <Coulomb>
-2.139

> <VdW>
1.302

> <VdW6>
-6.786

> <VdW12>
8.088

> <Bond>
0.134

> <Angle>
2.720

> <Pdih>
4.746

> <Idih>
0.000

> <Tether>
0.000

$$$$
VeraChem MOL file


 22 21  0  0  0  0  0  0  0  0999 V2000     
   23.4302   20.6710   22.5336 C   0  0  0  0  0  0  0  0  0  0  0  0
   23.6725   21.0998   23.6443 O   0  5  0  0  0  0  0  0  0  0  0  0
   23.8531   21.1733   21.5111 O   0  0  0  0  0  0  0  0  0  0  0  0
   22.5273   19.4483   22.4150 C   0  0  0  0  0  0  0  0  0  0  0  0
   22.6953   18.8142   23.2939 H   0  0  0  0  0  0  0  0  0  0  0  0
   22.8444   18.8746   21.5359 H   0  0  0  0  0  0  0  0  0  0  0  0
   21.0276   19.8167   22.3005 C   0  0  0  0  0  0  0  0  0  0  0  0
   20.7293   20.4016   23.1816 H   0  0  0  0  0  0  0  0  0  0  0  0
   20.8784   20.4620   21.4237 H   0  0  0  0  0  0  0  0  0  0  0  0
   20.1351   18.5624   22.1817 C   0  0  0  0  0  0  0  0  0  0  0  0
   20.2876   17.9189   23.0591 H   0  0  0  0  0  0  0  0  0  0  0  0
   20.4367   17.9792   21.3008 H   0  0  0  0  0  0  0  0  0  0  0  0
   18.6407   18.9327   22.0677 C   0  0  0  0  0  0  0  0  0  0  0  0
   18.3386   19.5158   22.9485 H   0  0  0  0  0  0  0  0  0  0  0  0
   18.4878   19.5762   21.1904 H   0  0  0  0  0  0  0  0  0  0  0  0
   17.7480   17.6796   21.9490 C   0  0  0  0  0  0  0  0  0  0  0  0
   17.8967   17.0343   22.8259 H   0  0  0  0  0  0  0  0  0  0  0  0
   18.0458   17.0946   21.0678 H   0  0  0  0  0  0  0  0  0  0  0  0
   16.2565   18.0536   21.8353 C   0  0  0  0  0  0  0  0  0  0  0  0
   16.0736   18.6737   20.9480 H   0  0  0  0  0  0  0  0  0  0  0  0
   15.9234   18.6131   22.7193 H   0  0  0  0  0  0  0  0  0  0  0  0
   15.6367   17.1514   21.7519 H   0  0  0  0  0  0  0  0  0  0  0  0
  1  2  1  0  0  0  0
  1  3  2  0  0  0  0
  1  4  1  0  0  0  0
  4  5  1  0  0  0  0
  4  6  1  0  0  0  0
  4  7  1  0  0  0  0
  7  8  1  0  0  0  0
  7  9  1  0  0  0  0
  7 10  1  0  0  0  0
 10 11  1  0  0  0  0
 10 12  1  0  0  0  0
 10 13  1  0  0  0  0
 13 14  1  0  0  0  0
 13 15  1  0  0  0  0
 13 16  1  0  0  0  0
 16 17  1  0  0  0  0
 16 18  1  0  0  0  0
 16 19  1  0  0  0  0
 19 20  1  0  0  0  0
 19 21  1  0  0  0  0
 19 22  1  0  0  0  0
M  END
> <VConfSearch Rank>
102

> <Conf_Id>
10

> <Delta U+W>
-1.291

> <U+W>
-54.451

> <U>
5.779

> <W>
-60.230

> <W(PB)>
-62.557

> <W(SA)>
2.328

> <Valence>
7.101

> <Coulomb>
-2.079

> <VdW>
0.757

> <VdW6>
-6.496

> <VdW12>
7.253

> <Bond>
0.100

> <Angle>
2.262

> <Pdih>
4.738

> <Idih>
0.001

> <Tether>
0.000

$$$$
VeraChem MOL file


 22 21  0  0  0  0  0  0  0  0999 V2000     
   19.2963   17.6256   18.5984 C   0  0  0  0  0  0  0  0  0  0  0  0
   20.1585   17.9879   17.8225 O   0  5  0  0  0  0  0  0  0  0  0  0
   18.6472   16.6083   18.4561 O   0  0  0  0  0  0  0  0  0  0  0  0
   19.0288   18.4840   19.8295 C   0  0  0  0  0  0  0  0  0  0  0  0
   17.9654   18.3951   20.0824 H   0  0  0  0  0  0  0  0  0  0  0  0
   19.2117   19.5314   19.5609 H   0  0  0  0  0  0  0  0  0  0  0  0
   19.9021   18.0833   21.0439 C   0  0  0  0  0  0  0  0  0  0  0  0
   19.7170   17.0288   21.2914 H   0  0  0  0  0  0  0  0  0  0  0  0
   20.9633   18.1656   20.7708 H   0  0  0  0  0  0  0  0  0  0  0  0
   19.6125   18.9668   22.2768 C   0  0  0  0  0  0  0  0  0  0  0  0
   18.5516   18.8810   22.5488 H   0  0  0  0  0  0  0  0  0  0  0  0
   19.7935   20.0179   22.0166 H   0  0  0  0  0  0  0  0  0  0  0  0
   20.4894   18.5653   23.4851 C   0  0  0  0  0  0  0  0  0  0  0  0
   20.3498   17.4946   23.6879 H   0  0  0  0  0  0  0  0  0  0  0  0
   21.5504   18.6986   23.2332 H   0  0  0  0  0  0  0  0  0  0  0  0
   20.1606   19.3556   24.7730 C   0  0  0  0  0  0  0  0  0  0  0  0
   20.7399   18.9312   25.6045 H   0  0  0  0  0  0  0  0  0  0  0  0
   19.1014   19.2196   25.0317 H   0  0  0  0  0  0  0  0  0  0  0  0
   20.4793   20.8625   24.6637 C   0  0  0  0  0  0  0  0  0  0  0  0
   20.3133   21.3607   25.6276 H   0  0  0  0  0  0  0  0  0  0  0  0
   19.8388   21.3548   23.9212 H   0  0  0  0  0  0  0  0  0  0  0  0
   21.5266   21.0228   24.3763 H   0  0  0  0  0  0  0  0  0  0  0  0
  1  2  1  0  0  0  0
  1  3  2  0  0  0  0
  1  4  1  0  0  0  0
  4  5  1  0  0  0  0
  4  6  1  0  0  0  0
  4  7  1  0  0  0  0
  7  8  1  0  0  0  0
  7  9  1  0  0  0  0
  7 10  1  0  0  0  0
 10 11  1  0  0  0  0
 10 12  1  0  0  0  0
 10 13  1  0  0  0  0
 13 14  1  0  0  0  0
 13 15  1  0  0  0  0
 13 16  1  0  0  0  0
 16 17  1  0  0  0  0
 16 18  1  0  0  0  0
 16 19  1  0  0  0  0
 19 20  1  0  0  0  0
 19 21  1  0  0  0  0
 19 22  1  0  0  0  0
M  END
> <VConfSearch Rank>
103

> <Conf_Id>
37

> <Delta U+W>
-0.345

> <U+W>
-53.504

> <U>
6.751

> <W>
-60.255

> <W(PB)>
-62.592

> <W(SA)>
2.336

> <Valence>
7.602

> <Coulomb>
-1.744

> <VdW>
0.894

> <VdW6>
-7.110

> <VdW12>
8.004

> <Bond>
0.131

> <Angle>
2.489

> <Pdih>
4.982

> <Idih>
0.001

> <Tether>
0.000

$$$$
VeraChem MOL file


 22 21  0  0  0  0  0  0  0  0999 V2000     
   17.9001   21.7815   20.2594 C   0  0  0  0  0  0  0  0  0  0  0  0
   18.1325   22.8953   20.6857 O   0  5  0  0  0  0  0  0  0  0  0  0
   16.8703   21.4805   19.6890 O   0  0  0  0  0  0  0  0  0  0  0  0
   18.9496   20.6961   20.4711 C   0  0  0  0  0  0  0  0  0  0  0  0
   19.9388   21.1689   20.4449 H   0  0  0  0  0  0  0  0  0  0  0  0
   18.8989   20.0030   19.6228 H   0  0  0  0  0  0  0  0  0  0  0  0
   18.7600   19.9269   21.8017 C   0  0  0  0  0  0  0  0  0  0  0  0
   18.8009   20.6362   22.6400 H   0  0  0  0  0  0  0  0  0  0  0  0
   17.7602   19.4712   21.8177 H   0  0  0  0  0  0  0  0  0  0  0  0
   19.8342   18.8342   21.9922 C   0  0  0  0  0  0  0  0  0  0  0  0
   20.8285   19.2989   21.9673 H   0  0  0  0  0  0  0  0  0  0  0  0
   19.7895   18.1254   21.1540 H   0  0  0  0  0  0  0  0  0  0  0  0
   19.6429   18.0719   23.3236 C   0  0  0  0  0  0  0  0  0  0  0  0
   19.7378   18.7698   24.1667 H   0  0  0  0  0  0  0  0  0  0  0  0
   18.6199   17.6732   23.3634 H   0  0  0  0  0  0  0  0  0  0  0  0
   20.6341   16.8995   23.5088 C   0  0  0  0  0  0  0  0  0  0  0  0
   20.5375   16.1959   22.6704 H   0  0  0  0  0  0  0  0  0  0  0  0
   20.3562   16.3429   24.4144 H   0  0  0  0  0  0  0  0  0  0  0  0
   22.1036   17.3558   23.6373 C   0  0  0  0  0  0  0  0  0  0  0  0
   22.2193   18.0836   24.4510 H   0  0  0  0  0  0  0  0  0  0  0  0
   22.4627   17.8168   22.7088 H   0  0  0  0  0  0  0  0  0  0  0  0
   22.7538   16.4988   23.8555 H   0  0  0  0  0  0  0  0  0  0  0  0
  1  2  1  0  0  0  0
  1  3  2  0  0  0  0
  1  4  1  0  0  0  0
  4  5  1  0  0  0  0
  4  6  1  0  0  0  0
  4  7  1  0  0  0  0
  7  8  1  0  0  0  0
  7  9  1  0  0  0  0
  7 10  1  0  0  0  0
 10 11  1  0  0  0  0
 10 12  1  0  0  0  0
 10 13  1  0  0  0  0
 13 14  1  0  0  0  0
 13 15  1  0  0  0  0
 13 16  1  0  0  0  0
 16 17  1  0  0  0  0
 16 18  1  0  0  0  0
 16 19  1  0  0  0  0
 19 20  1  0  0  0  0
 19 21  1  0  0  0  0
 19 22  1  0  0  0  0
M  END
> <VConfSearch Rank>
104

> <Conf_Id>
38

> <Delta U+W>
-0.439

> <U+W>
-53.598

> <U>
6.751

> <W>
-60.350

> <W(PB)>
-62.659

> <W(SA)>
2.309

> <Valence>
7.602

> <Coulomb>
-1.744

> <VdW>
0.893

> <VdW6>
-7.110

> <VdW12>
8.004

> <Bond>
0.131

> <Angle>
2.489

> <Pdih>
4.981

> <Idih>
0.001

> <Tether>
0.000

$$$$
VeraChem MOL file


 22 21  0  0  0  0  0  0  0  0999 V2000     
   21.1863   21.5941   24.6405 C   0  0  0  0  0  0  0  0  0  0  0  0
   20.5135   22.5009   25.0894 O   0  5  0  0  0  0  0  0  0  0  0  0
   22.4011   21.6074   24.6135 O   0  0  0  0  0  0  0  0  0  0  0  0
   20.4661   20.3829   24.0588 C   0  0  0  0  0  0  0  0  0  0  0  0
   19.5324   20.2423   24.6164 H   0  0  0  0  0  0  0  0  0  0  0  0
   21.0920   19.5030   24.2445 H   0  0  0  0  0  0  0  0  0  0  0  0
   20.1672   20.5335   22.5443 C   0  0  0  0  0  0  0  0  0  0  0  0
   19.6234   21.4751   22.3859 H   0  0  0  0  0  0  0  0  0  0  0  0
   21.1118   20.6245   21.9904 H   0  0  0  0  0  0  0  0  0  0  0  0
   19.3270   19.3734   21.9587 C   0  0  0  0  0  0  0  0  0  0  0  0
   19.0504   19.6400   20.9307 H   0  0  0  0  0  0  0  0  0  0  0  0
   18.3874   19.2798   22.5200 H   0  0  0  0  0  0  0  0  0  0  0  0
   20.0713   18.0154   21.9551 C   0  0  0  0  0  0  0  0  0  0  0  0
   21.0118   18.1097   21.3953 H   0  0  0  0  0  0  0  0  0  0  0  0
   20.3458   17.7461   22.9828 H   0  0  0  0  0  0  0  0  0  0  0  0
   19.2328   16.8571   21.3657 C   0  0  0  0  0  0  0  0  0  0  0  0
   18.2858   16.7670   21.9157 H   0  0  0  0  0  0  0  0  0  0  0  0
   19.7746   15.9147   21.5252 H   0  0  0  0  0  0  0  0  0  0  0  0
   18.9453   17.0129   19.8565 C   0  0  0  0  0  0  0  0  0  0  0  0
   18.3005   17.8777   19.6573 H   0  0  0  0  0  0  0  0  0  0  0  0
   18.4335   16.1221   19.4699 H   0  0  0  0  0  0  0  0  0  0  0  0
   19.8771   17.1394   19.2900 H   0  0  0  0  0  0  0  0  0  0  0  0
  1  2  1  0  0  0  0
  1  3  2  0  0  0  0
  1  4  1  0  0  0  0
  4  5  1  0  0  0  0
  4  6  1  0  0  0  0
  4  7  1  0  0  0  0
  7  8  1  0  0  0  0
  7  9  1  0  0  0  0
  7 10  1  0  0  0  0
 10 11  1  0  0  0  0
 10 12  1  0  0  0  0
 10 13  1  0  0  0  0
 13 14  1  0  0  0  0
 13 15  1  0  0  0  0
 13 16  1  0  0  0  0
 16 17  1  0  0  0  0
 16 18  1  0  0  0  0
 16 19  1  0  0  0  0
 19 20  1  0  0  0  0
 19 21  1  0  0  0  0
 19 22  1  0  0  0  0
M  END
> <VConfSearch Rank>
105

> <Conf_Id>
60

> <Delta U+W>
0.386

> <U+W>
-52.773

> <U>
7.689

> <W>
-60.463

> <W(PB)>
-62.772

> <W(SA)>
2.309

> <Valence>
8.197

> <Coulomb>
-1.561

> <VdW>
1.053

> <VdW6>
-7.737

> <VdW12>
8.790

> <Bond>
0.181

> <Angle>
2.780

> <Pdih>
5.235

> <Idih>
0.001

> <Tether>
0.000

$$$$
VeraChem MOL file


 22 21  0  0  0  0  0  0  0  0999 V2000     
   18.6633   22.4703   21.6712 C   0  0  0  0  0  0  0  0  0  0  0  0
   17.5459   22.4634   21.1938 O   0  5  0  0  0  0  0  0  0  0  0  0
   19.4063   23.4309   21.6305 O   0  0  0  0  0  0  0  0  0  0  0  0
   19.1696   21.1962   22.3379 C   0  0  0  0  0  0  0  0  0  0  0  0
   18.3098   20.6986   22.8000 H   0  0  0  0  0  0  0  0  0  0  0  0
   19.8527   21.4838   23.1461 H   0  0  0  0  0  0  0  0  0  0  0  0
   19.8861   20.2440   21.3452 C   0  0  0  0  0  0  0  0  0  0  0  0
   19.1789   19.9236   20.5677 H   0  0  0  0  0  0  0  0  0  0  0  0
   20.6786   20.8051   20.8307 H   0  0  0  0  0  0  0  0  0  0  0  0
   20.5182   19.0036   22.0208 C   0  0  0  0  0  0  0  0  0  0  0  0
   21.2184   19.3273   22.8029 H   0  0  0  0  0  0  0  0  0  0  0  0
   21.1157   18.4745   21.2676 H   0  0  0  0  0  0  0  0  0  0  0  0
   19.4738   18.0322   22.6237 C   0  0  0  0  0  0  0  0  0  0  0  0
   18.8777   18.5591   23.3794 H   0  0  0  0  0  0  0  0  0  0  0  0
   18.7726   17.7100   21.8419 H   0  0  0  0  0  0  0  0  0  0  0  0
   20.1059   16.7903   23.2949 C   0  0  0  0  0  0  0  0  0  0  0  0
   19.3148   16.2295   23.8115 H   0  0  0  0  0  0  0  0  0  0  0  0
   20.8168   17.1086   24.0699 H   0  0  0  0  0  0  0  0  0  0  0  0
   20.8113   15.8454   22.2979 C   0  0  0  0  0  0  0  0  0  0  0  0
   20.1283   15.5415   21.4939 H   0  0  0  0  0  0  0  0  0  0  0  0
   21.1563   14.9373   22.8090 H   0  0  0  0  0  0  0  0  0  0  0  0
   21.6882   16.3228   21.8434 H   0  0  0  0  0  0  0  0  0  0  0  0
  1  2  1  0  0  0  0
  1  3  2  0  0  0  0
  1  4  1  0  0  0  0
  4  5  1  0  0  0  0
  4  6  1  0  0  0  0
  4  7  1  0  0  0  0
  7  8  1  0  0  0  0
  7  9  1  0  0  0  0
  7 10  1  0  0  0  0
 10 11  1  0  0  0  0
 10 12  1  0  0  0  0
 10 13  1  0  0  0  0
 13 14  1  0  0  0  0
 13 15  1  0  0  0  0
 13 16  1  0  0  0  0
 16 17  1  0  0  0  0
 16 18  1  0  0  0  0
 16 19  1  0  0  0  0
 19 20  1  0  0  0  0
 19 21  1  0  0  0  0
 19 22  1  0  0  0  0
M  END
> <VConfSearch Rank>
106

> <Conf_Id>
28

> <Delta U+W>
0.351

> <U+W>
-52.808

> <U>
7.689

> <W>
-60.498

> <W(PB)>
-62.768

> <W(SA)>
2.270

> <Valence>
8.197

> <Coulomb>
-1.561

> <VdW>
1.053

> <VdW6>
-7.737

> <VdW12>
8.791

> <Bond>
0.181

> <Angle>
2.780

> <Pdih>
5.235

> <Idih>
0.001

> <Tether>
0.000

$$$$
VeraChem MOL file


 22 21  0  0  0  0  0  0  0  0999 V2000     
   17.5728   16.4938   23.9196 C   0  0  0  0  0  0  0  0  0  0  0  0
   16.8214   16.9496   24.7587 O   0  5  0  0  0  0  0  0  0  0  0  0
   17.2345   15.6776   23.0855 O   0  0  0  0  0  0  0  0  0  0  0  0
   19.0148   16.9884   23.8997 C   0  0  0  0  0  0  0  0  0  0  0  0
   19.6520   16.1669   23.5509 H   0  0  0  0  0  0  0  0  0  0  0  0
   19.3117   17.2137   24.9311 H   0  0  0  0  0  0  0  0  0  0  0  0
   19.2110   18.2347   23.0017 C   0  0  0  0  0  0  0  0  0  0  0  0
   18.8886   17.9904   21.9810 H   0  0  0  0  0  0  0  0  0  0  0  0
   18.5600   19.0448   23.3584 H   0  0  0  0  0  0  0  0  0  0  0  0
   20.6820   18.7115   22.9963 C   0  0  0  0  0  0  0  0  0  0  0  0
   21.3268   17.9201   22.5901 H   0  0  0  0  0  0  0  0  0  0  0  0
   21.0075   18.8763   24.0325 H   0  0  0  0  0  0  0  0  0  0  0  0
   20.9030   20.0192   22.1997 C   0  0  0  0  0  0  0  0  0  0  0  0
   20.2614   20.8119   22.6082 H   0  0  0  0  0  0  0  0  0  0  0  0
   21.9397   20.3490   22.3531 H   0  0  0  0  0  0  0  0  0  0  0  0
   20.6441   19.8689   20.6836 C   0  0  0  0  0  0  0  0  0  0  0  0
   19.5913   19.6153   20.5026 H   0  0  0  0  0  0  0  0  0  0  0  0
   21.2467   19.0412   20.2849 H   0  0  0  0  0  0  0  0  0  0  0  0
   20.9856   21.1646   19.9206 C   0  0  0  0  0  0  0  0  0  0  0  0
   22.0436   21.4287   20.0476 H   0  0  0  0  0  0  0  0  0  0  0  0
   20.3768   22.0042   20.2810 H   0  0  0  0  0  0  0  0  0  0  0  0
   20.7934   21.0431   18.8466 H   0  0  0  0  0  0  0  0  0  0  0  0
  1  2  1  0  0  0  0
  1  3  2  0  0  0  0
  1  4  1  0  0  0  0
  4  5  1  0  0  0  0
  4  6  1  0  0  0  0
  4  7  1  0  0  0  0
  7  8  1  0  0  0  0
  7  9  1  0  0  0  0
  7 10  1  0  0  0  0
 10 11  1  0  0  0  0
 10 12  1  0  0  0  0
 10 13  1  0  0  0  0
 13 14  1  0  0  0  0
 13 15  1  0  0  0  0
 13 16  1  0  0  0  0
 16 17  1  0  0  0  0
 16 18  1  0  0  0  0
 16 19  1  0  0  0  0
 19 20  1  0  0  0  0
 19 21  1  0  0  0  0
 19 22  1  0  0  0  0
M  END
> <VConfSearch Rank>
107

> <Conf_Id>
50

> <Delta U+W>
-0.486

> <U+W>
-53.646

> <U>
7.026

> <W>
-60.672

> <W(PB)>
-62.964

> <W(SA)>
2.292

> <Valence>
7.637

> <Coulomb>
-1.488

> <VdW>
0.877

> <VdW6>
-7.165

> <VdW12>
8.043

> <Bond>
0.134

> <Angle>
2.513

> <Pdih>
4.990

> <Idih>
0.001

> <Tether>
0.000

$$$$
VeraChem MOL file


 22 21  0  0  0  0  0  0  0  0999 V2000     
   20.4705   18.7820   25.9168 C   0  0  0  0  0  0  0  0  0  0  0  0
   20.7948   17.6913   26.3430 O   0  5  0  0  0  0  0  0  0  0  0  0
   19.7036   19.5286   26.4921 O   0  0  0  0  0  0  0  0  0  0  0  0
   21.0415   19.2299   24.5760 C   0  0  0  0  0  0  0  0  0  0  0  0
   22.0487   18.8076   24.4768 H   0  0  0  0  0  0  0  0  0  0  0  0
   21.1480   20.3212   24.5984 H   0  0  0  0  0  0  0  0  0  0  0  0
   20.1617   18.8039   23.3749 C   0  0  0  0  0  0  0  0  0  0  0  0
   20.0573   17.7101   23.3718 H   0  0  0  0  0  0  0  0  0  0  0  0
   19.1549   19.2215   23.5071 H   0  0  0  0  0  0  0  0  0  0  0  0
   20.7615   19.2745   22.0296 C   0  0  0  0  0  0  0  0  0  0  0  0
   21.7949   18.9097   21.9525 H   0  0  0  0  0  0  0  0  0  0  0  0
   20.8170   20.3716   22.0119 H   0  0  0  0  0  0  0  0  0  0  0  0
   19.9730   18.7762   20.7953 C   0  0  0  0  0  0  0  0  0  0  0  0
   20.5344   19.0477   19.8909 H   0  0  0  0  0  0  0  0  0  0  0  0
   19.9206   17.6789   20.8105 H   0  0  0  0  0  0  0  0  0  0  0  0
   18.5474   19.3645   20.6957 C   0  0  0  0  0  0  0  0  0  0  0  0
   18.5956   20.4615   20.7337 H   0  0  0  0  0  0  0  0  0  0  0  0
   17.9432   19.0400   21.5530 H   0  0  0  0  0  0  0  0  0  0  0  0
   17.8453   18.9277   19.3941 C   0  0  0  0  0  0  0  0  0  0  0  0
   17.7590   17.8344   19.3427 H   0  0  0  0  0  0  0  0  0  0  0  0
   18.4032   19.2696   18.5125 H   0  0  0  0  0  0  0  0  0  0  0  0
   16.8337   19.3505   19.3397 H   0  0  0  0  0  0  0  0  0  0  0  0
  1  2  1  0  0  0  0
  1  3  2  0  0  0  0
  1  4  1  0  0  0  0
  4  5  1  0  0  0  0
  4  6  1  0  0  0  0
  4  7  1  0  0  0  0
  7  8  1  0  0  0  0
  7  9  1  0  0  0  0
  7 10  1  0  0  0  0
 10 11  1  0  0  0  0
 10 12  1  0  0  0  0
 10 13  1  0  0  0  0
 13 14  1  0  0  0  0
 13 15  1  0  0  0  0
 13 16  1  0  0  0  0
 16 17  1  0  0  0  0
 16 18  1  0  0  0  0
 16 19  1  0  0  0  0
 19 20  1  0  0  0  0
 19 21  1  0  0  0  0
 19 22  1  0  0  0  0
M  END
> <VConfSearch Rank>
108

> <Conf_Id>
51

> <Delta U+W>
-0.517

> <U+W>
-53.677

> <U>
7.026

> <W>
-60.703

> <W(PB)>
-63.007

> <W(SA)>
2.304

> <Valence>
7.638

> <Coulomb>
-1.488

> <VdW>
0.877

> <VdW6>
-7.165

> <VdW12>
8.042

> <Bond>
0.134

> <Angle>
2.513

> <Pdih>
4.990

> <Idih>
0.001

> <Tether>
0.000

$$$$
VeraChem MOL file


 22 21  0  0  0  0  0  0  0  0999 V2000     
   22.4248   17.3848   20.3985 C   0  0  0  0  0  0  0  0  0  0  0  0
   21.9713   16.6716   19.5252 O   0  5  0  0  0  0  0  0  0  0  0  0
   23.0998   18.3710   20.1783 O   0  0  0  0  0  0  0  0  0  0  0  0
   22.1458   17.0086   21.8510 C   0  0  0  0  0  0  0  0  0  0  0  0
   22.8783   17.5154   22.4909 H   0  0  0  0  0  0  0  0  0  0  0  0
   22.3276   15.9321   21.9516 H   0  0  0  0  0  0  0  0  0  0  0  0
   20.7053   17.3369   22.3221 C   0  0  0  0  0  0  0  0  0  0  0  0
   19.9833   16.8455   21.6551 H   0  0  0  0  0  0  0  0  0  0  0  0
   20.5518   16.9110   23.3229 H   0  0  0  0  0  0  0  0  0  0  0  0
   20.4265   18.8561   22.3669 C   0  0  0  0  0  0  0  0  0  0  0  0
   20.5613   19.2868   21.3651 H   0  0  0  0  0  0  0  0  0  0  0  0
   21.1587   19.3443   23.0245 H   0  0  0  0  0  0  0  0  0  0  0  0
   18.9984   19.1607   22.8682 C   0  0  0  0  0  0  0  0  0  0  0  0
   18.2667   18.6722   22.2101 H   0  0  0  0  0  0  0  0  0  0  0  0
   18.8620   18.7335   23.8711 H   0  0  0  0  0  0  0  0  0  0  0  0
   18.7190   20.6777   22.9124 C   0  0  0  0  0  0  0  0  0  0  0  0
   18.8527   21.1083   21.9103 H   0  0  0  0  0  0  0  0  0  0  0  0
   19.4480   21.1696   23.5712 H   0  0  0  0  0  0  0  0  0  0  0  0
   17.2918   20.9780   23.4128 C   0  0  0  0  0  0  0  0  0  0  0  0
   16.5407   20.5236   22.7535 H   0  0  0  0  0  0  0  0  0  0  0  0
   17.1104   22.0604   23.4379 H   0  0  0  0  0  0  0  0  0  0  0  0
   17.1404   20.5853   24.4269 H   0  0  0  0  0  0  0  0  0  0  0  0
  1  2  1  0  0  0  0
  1  3  2  0  0  0  0
  1  4  1  0  0  0  0
  4  5  1  0  0  0  0
  4  6  1  0  0  0  0
  4  7  1  0  0  0  0
  7  8  1  0  0  0  0
  7  9  1  0  0  0  0
  7 10  1  0  0  0  0
 10 11  1  0  0  0  0
 10 12  1  0  0  0  0
 10 13  1  0  0  0  0
 13 14  1  0  0  0  0
 13 15  1  0  0  0  0
 13 16  1  0  0  0  0
 16 17  1  0  0  0  0
 16 18  1  0  0  0  0
 16 19  1  0  0  0  0
 19 20  1  0  0  0  0
 19 21  1  0  0  0  0
 19 22  1  0  0  0  0
M  END
> <VConfSearch Rank>
109

> <Conf_Id>
43

> <Delta U+W>
-0.129

> <U+W>
-53.289

> <U>
7.937

> <W>
-61.225

> <W(PB)>
-63.523

> <W(SA)>
2.297

> <Valence>
7.358

> <Coulomb>
-0.022

> <VdW>
0.601

> <VdW6>
-7.363

> <VdW12>
7.964

> <Bond>
0.121

> <Angle>
2.425

> <Pdih>
4.811

> <Idih>
0.000

> <Tether>
0.000

$$$$
VeraChem MOL file


 22 21  0  0  0  0  0  0  0  0999 V2000     
   19.2845   22.0393   20.5932 C   0  0  0  0  0  0  0  0  0  0  0  0
   20.3301   22.4984   20.1774 O   0  5  0  0  0  0  0  0  0  0  0  0
   18.5646   22.6158   21.3844 O   0  0  0  0  0  0  0  0  0  0  0  0
   18.8445   20.6718   20.0780 C   0  0  0  0  0  0  0  0  0  0  0  0
   18.9839   20.6707   18.9905 H   0  0  0  0  0  0  0  0  0  0  0  0
   17.7690   20.5583   20.2603 H   0  0  0  0  0  0  0  0  0  0  0  0
   19.6217   19.4831   20.7010 C   0  0  0  0  0  0  0  0  0  0  0  0
   19.3401   18.5596   20.1772 H   0  0  0  0  0  0  0  0  0  0  0  0
   20.6986   19.6253   20.5347 H   0  0  0  0  0  0  0  0  0  0  0  0
   19.3428   19.3172   22.2117 C   0  0  0  0  0  0  0  0  0  0  0  0
   18.2638   19.1887   22.3737 H   0  0  0  0  0  0  0  0  0  0  0  0
   19.6380   20.2314   22.7451 H   0  0  0  0  0  0  0  0  0  0  0  0
   20.1014   18.1101   22.8040 C   0  0  0  0  0  0  0  0  0  0  0  0
   19.8057   17.1942   22.2741 H   0  0  0  0  0  0  0  0  0  0  0  0
   21.1803   18.2395   22.6416 H   0  0  0  0  0  0  0  0  0  0  0  0
   19.8240   17.9443   24.3128 C   0  0  0  0  0  0  0  0  0  0  0  0
   18.7457   17.8130   24.4790 H   0  0  0  0  0  0  0  0  0  0  0  0
   20.1203   18.8580   24.8465 H   0  0  0  0  0  0  0  0  0  0  0  0
   20.5836   16.7383   24.9009 C   0  0  0  0  0  0  0  0  0  0  0  0
   20.2829   15.8054   24.4061 H   0  0  0  0  0  0  0  0  0  0  0  0
   20.3750   16.6354   25.9737 H   0  0  0  0  0  0  0  0  0  0  0  0
   21.6678   16.8584   24.7764 H   0  0  0  0  0  0  0  0  0  0  0  0
  1  2  1  0  0  0  0
  1  3  2  0  0  0  0
  1  4  1  0  0  0  0
  4  5  1  0  0  0  0
  4  6  1  0  0  0  0
  4  7  1  0  0  0  0
  7  8  1  0  0  0  0
  7  9  1  0  0  0  0
  7 10  1  0  0  0  0
 10 11  1  0  0  0  0
 10 12  1  0  0  0  0
 10 13  1  0  0  0  0
 13 14  1  0  0  0  0
 13 15  1  0  0  0  0
 13 16  1  0  0  0  0
 16 17  1  0  0  0  0
 16 18  1  0  0  0  0
 16 19  1  0  0  0  0
 19 20  1  0  0  0  0
 19 21  1  0  0  0  0
 19 22  1  0  0  0  0
M  END
> <VConfSearch Rank>
110

> <Conf_Id>
44

> <Delta U+W>
-0.155

> <U+W>
-53.314

> <U>
7.937

> <W>
-61.252

> <W(PB)>
-63.556

> <W(SA)>
2.304

> <Valence>
7.358

> <Coulomb>
-0.021

> <VdW>
0.600

> <VdW6>
-7.363

> <VdW12>
7.964

> <Bond>
0.121

> <Angle>
2.425

> <Pdih>
4.811

> <Idih>
0.001

> <Tether>
0.000

$$$$
VeraChem MOL file


 22 21  0  0  0  0  0  0  0  0999 V2000     
   21.3376   16.4028   24.0670 C   0  0  0  0  0  0  0  0  0  0  0  0
   20.5403   15.7531   24.7144 O   0  5  0  0  0  0  0  0  0  0  0  0
   22.3713   16.8483   24.5251 O   0  0  0  0  0  0  0  0  0  0  0  0
   21.0311   16.6555   22.5934 C   0  0  0  0  0  0  0  0  0  0  0  0
   20.7070   15.7026   22.1587 H   0  0  0  0  0  0  0  0  0  0  0  0
   21.9615   16.9362   22.0848 H   0  0  0  0  0  0  0  0  0  0  0  0
   19.9419   17.7324   22.3493 C   0  0  0  0  0  0  0  0  0  0  0  0
   19.6840   17.7301   21.2827 H   0  0  0  0  0  0  0  0  0  0  0  0
   19.0298   17.4580   22.8973 H   0  0  0  0  0  0  0  0  0  0  0  0
   20.4018   19.1485   22.7716 C   0  0  0  0  0  0  0  0  0  0  0  0
   21.2891   19.4382   22.1924 H   0  0  0  0  0  0  0  0  0  0  0  0
   20.7139   19.1270   23.8248 H   0  0  0  0  0  0  0  0  0  0  0  0
   19.3036   20.2267   22.6123 C   0  0  0  0  0  0  0  0  0  0  0  0
   18.4164   19.9365   23.1915 H   0  0  0  0  0  0  0  0  0  0  0  0
   19.6699   21.1634   23.0543 H   0  0  0  0  0  0  0  0  0  0  0  0
   18.9040   20.4892   21.1427 C   0  0  0  0  0  0  0  0  0  0  0  0
   18.4596   19.5863   20.7039 H   0  0  0  0  0  0  0  0  0  0  0  0
   19.7995   20.7262   20.5517 H   0  0  0  0  0  0  0  0  0  0  0  0
   17.8947   21.6495   21.0301 C   0  0  0  0  0  0  0  0  0  0  0  0
   16.9771   21.4271   21.5904 H   0  0  0  0  0  0  0  0  0  0  0  0
   17.6183   21.8214   19.9817 H   0  0  0  0  0  0  0  0  0  0  0  0
   18.3206   22.5811   21.4251 H   0  0  0  0  0  0  0  0  0  0  0  0
  1  2  1  0  0  0  0
  1  3  2  0  0  0  0
  1  4  1  0  0  0  0
  4  5  1  0  0  0  0
  4  6  1  0  0  0  0
  4  7  1  0  0  0  0
  7  8  1  0  0  0  0
  7  9  1  0  0  0  0
  7 10  1  0  0  0  0
 10 11  1  0  0  0  0
 10 12  1  0  0  0  0
 10 13  1  0  0  0  0
 13 14  1  0  0  0  0
 13 15  1  0  0  0  0
 13 16  1  0  0  0  0
 16 17  1  0  0  0  0
 16 18  1  0  0  0  0
 16 19  1  0  0  0  0
 19 20  1  0  0  0  0
 19 21  1  0  0  0  0
 19 22  1  0  0  0  0
M  END
> <VConfSearch Rank>
111

> <Conf_Id>
53

> <Delta U+W>
0.723

> <U+W>
-52.436

> <U>
8.587

> <W>
-61.022

> <W(PB)>
-63.285

> <W(SA)>
2.263

> <Valence>
7.933

> <Coulomb>
-0.124

> <VdW>
0.778

> <VdW6>
-7.981

> <VdW12>
8.759

> <Bond>
0.160

> <Angle>
2.698

> <Pdih>
5.074

> <Idih>
0.001

> <Tether>
0.000

$$$$
VeraChem MOL file


 22 21  0  0  0  0  0  0  0  0999 V2000     
   18.1613   21.9124   22.0880 C   0  0  0  0  0  0  0  0  0  0  0  0
   18.2694   22.3233   20.9495 O   0  5  0  0  0  0  0  0  0  0  0  0
   17.5009   22.4678   22.9436 O   0  0  0  0  0  0  0  0  0  0  0  0
   18.8752   20.6171   22.4574 C   0  0  0  0  0  0  0  0  0  0  0  0
   19.1471   20.6682   23.5184 H   0  0  0  0  0  0  0  0  0  0  0  0
   19.8051   20.5751   21.8792 H   0  0  0  0  0  0  0  0  0  0  0  0
   18.0140   19.3582   22.1844 C   0  0  0  0  0  0  0  0  0  0  0  0
   17.0347   19.4908   22.6648 H   0  0  0  0  0  0  0  0  0  0  0  0
   17.8191   19.2808   21.1058 H   0  0  0  0  0  0  0  0  0  0  0  0
   18.6369   18.0349   22.6958 C   0  0  0  0  0  0  0  0  0  0  0  0
   17.9184   17.2299   22.4893 H   0  0  0  0  0  0  0  0  0  0  0  0
   18.7439   18.0658   23.7888 H   0  0  0  0  0  0  0  0  0  0  0  0
   19.9866   17.6583   22.0338 C   0  0  0  0  0  0  0  0  0  0  0  0
   20.0216   16.5671   21.9113 H   0  0  0  0  0  0  0  0  0  0  0  0
   20.0415   18.0813   21.0214 H   0  0  0  0  0  0  0  0  0  0  0  0
   21.2178   18.0879   22.8647 C   0  0  0  0  0  0  0  0  0  0  0  0
   21.1780   17.6113   23.8538 H   0  0  0  0  0  0  0  0  0  0  0  0
   21.2086   19.1707   23.0377 H   0  0  0  0  0  0  0  0  0  0  0  0
   22.5356   17.6984   22.1652 C   0  0  0  0  0  0  0  0  0  0  0  0
   22.5943   16.6126   22.0137 H   0  0  0  0  0  0  0  0  0  0  0  0
   23.3994   18.0034   22.7700 H   0  0  0  0  0  0  0  0  0  0  0  0
   22.6186   18.1865   21.1853 H   0  0  0  0  0  0  0  0  0  0  0  0
  1  2  1  0  0  0  0
  1  3  2  0  0  0  0
  1  4  1  0  0  0  0
  4  5  1  0  0  0  0
  4  6  1  0  0  0  0
  4  7  1  0  0  0  0
  7  8  1  0  0  0  0
  7  9  1  0  0  0  0
  7 10  1  0  0  0  0
 10 11  1  0  0  0  0
 10 12  1  0  0  0  0
 10 13  1  0  0  0  0
 13 14  1  0  0  0  0
 13 15  1  0  0  0  0
 13 16  1  0  0  0  0
 16 17  1  0  0  0  0
 16 18  1  0  0  0  0
 16 19  1  0  0  0  0
 19 20  1  0  0  0  0
 19 21  1  0  0  0  0
 19 22  1  0  0  0  0
M  END
> <VConfSearch Rank>
112

> <Conf_Id>
5

> <Delta U+W>
2.167

> <U+W>
-50.993

> <U>
10.045

> <W>
-61.037

> <W(PB)>
-63.303

> <W(SA)>
2.266

> <Valence>
10.100

> <Coulomb>
-0.883

> <VdW>
0.828

> <VdW6>
-8.177

> <VdW12>
9.005

> <Bond>
0.182

> <Angle>
2.988

> <Pdih>
6.930

> <Idih>
0.001

> <Tether>
0.000

$$$$
VeraChem MOL file


 22 21  0  0  0  0  0  0  0  0999 V2000     
   17.5603   21.3087   22.5736 C   0  0  0  0  0  0  0  0  0  0  0  0
   17.3981   21.5942   23.7435 O   0  5  0  0  0  0  0  0  0  0  0  0
   16.9076   21.7878   21.6675 O   0  0  0  0  0  0  0  0  0  0  0  0
   18.6258   20.2756   22.2250 C   0  0  0  0  0  0  0  0  0  0  0  0
   19.4445   20.3885   22.9446 H   0  0  0  0  0  0  0  0  0  0  0  0
   19.0227   20.5168   21.2317 H   0  0  0  0  0  0  0  0  0  0  0  0
   18.0847   18.8238   22.2484 C   0  0  0  0  0  0  0  0  0  0  0  0
   17.7658   18.5736   23.2697 H   0  0  0  0  0  0  0  0  0  0  0  0
   17.1819   18.7747   21.6240 H   0  0  0  0  0  0  0  0  0  0  0  0
   19.0903   17.7590   21.7428 C   0  0  0  0  0  0  0  0  0  0  0  0
   19.3390   17.9451   20.6890 H   0  0  0  0  0  0  0  0  0  0  0  0
   18.5792   16.7867   21.7613 H   0  0  0  0  0  0  0  0  0  0  0  0
   20.3840   17.6400   22.5876 C   0  0  0  0  0  0  0  0  0  0  0  0
   20.1858   17.9395   23.6259 H   0  0  0  0  0  0  0  0  0  0  0  0
   20.6786   16.5823   22.6259 H   0  0  0  0  0  0  0  0  0  0  0  0
   21.5694   18.4480   22.0108 C   0  0  0  0  0  0  0  0  0  0  0  0
   21.3087   19.5098   21.9266 H   0  0  0  0  0  0  0  0  0  0  0  0
   21.7925   18.0976   20.9936 H   0  0  0  0  0  0  0  0  0  0  0  0
   22.8306   18.3045   22.8860 C   0  0  0  0  0  0  0  0  0  0  0  0
   22.6473   18.6776   23.9022 H   0  0  0  0  0  0  0  0  0  0  0  0
   23.6644   18.8774   22.4600 H   0  0  0  0  0  0  0  0  0  0  0  0
   23.1423   17.2542   22.9572 H   0  0  0  0  0  0  0  0  0  0  0  0
  1  2  1  0  0  0  0
  1  3  2  0  0  0  0
  1  4  1  0  0  0  0
  4  5  1  0  0  0  0
  4  6  1  0  0  0  0
  4  7  1  0  0  0  0
  7  8  1  0  0  0  0
  7  9  1  0  0  0  0
  7 10  1  0  0  0  0
 10 11  1  0  0  0  0
 10 12  1  0  0  0  0
 10 13  1  0  0  0  0
 13 14  1  0  0  0  0
 13 15  1  0  0  0  0
 13 16  1  0  0  0  0
 16 17  1  0  0  0  0
 16 18  1  0  0  0  0
 16 19  1  0  0  0  0
 19 20  1  0  0  0  0
 19 21  1  0  0  0  0
 19 22  1  0  0  0  0
M  END
> <VConfSearch Rank>
113

> <Conf_Id>
6

> <Delta U+W>
2.118

> <U+W>
-51.042

> <U>
10.045

> <W>
-61.086

> <W(PB)>
-63.356

> <W(SA)>
2.270

> <Valence>
10.100

> <Coulomb>
-0.883

> <VdW>
0.828

> <VdW6>
-8.177

> <VdW12>
9.004

> <Bond>
0.182

> <Angle>
2.988

> <Pdih>
6.930

> <Idih>
0.001

> <Tether>
0.000

$$$$
VeraChem MOL file


 22 21  0  0  0  0  0  0  0  0999 V2000     
   18.3085   19.2826   24.9419 C   0  0  0  0  0  0  0  0  0  0  0  0
   18.7713   20.2705   25.4780 O   0  5  0  0  0  0  0  0  0  0  0  0
   18.4893   18.1520   25.3496 O   0  0  0  0  0  0  0  0  0  0  0  0
   17.3934   19.4745   23.7340 C   0  0  0  0  0  0  0  0  0  0  0  0
   16.5230   20.0358   24.0930 H   0  0  0  0  0  0  0  0  0  0  0  0
   17.0225   18.4951   23.4083 H   0  0  0  0  0  0  0  0  0  0  0  0
   18.0268   20.2360   22.5357 C   0  0  0  0  0  0  0  0  0  0  0  0
   17.2107   20.6283   21.9140 H   0  0  0  0  0  0  0  0  0  0  0  0
   18.5784   21.1142   22.8992 H   0  0  0  0  0  0  0  0  0  0  0  0
   18.9389   19.3744   21.6275 C   0  0  0  0  0  0  0  0  0  0  0  0
   19.1986   19.9693   20.7412 H   0  0  0  0  0  0  0  0  0  0  0  0
   18.3789   18.5032   21.2611 H   0  0  0  0  0  0  0  0  0  0  0  0
   20.2436   18.9040   22.3093 C   0  0  0  0  0  0  0  0  0  0  0  0
   20.7527   19.7642   22.7653 H   0  0  0  0  0  0  0  0  0  0  0  0
   20.0091   18.2026   23.1198 H   0  0  0  0  0  0  0  0  0  0  0  0
   21.1931   18.2124   21.3082 C   0  0  0  0  0  0  0  0  0  0  0  0
   21.4442   18.9065   20.4942 H   0  0  0  0  0  0  0  0  0  0  0  0
   20.6847   17.3528   20.8499 H   0  0  0  0  0  0  0  0  0  0  0  0
   22.4901   17.7357   21.9922 C   0  0  0  0  0  0  0  0  0  0  0  0
   23.0349   18.5809   22.4328 H   0  0  0  0  0  0  0  0  0  0  0  0
   23.1527   17.2457   21.2671 H   0  0  0  0  0  0  0  0  0  0  0  0
   22.2703   17.0158   22.7916 H   0  0  0  0  0  0  0  0  0  0  0  0
  1  2  1  0  0  0  0
  1  3  2  0  0  0  0
  1  4  1  0  0  0  0
  4  5  1  0  0  0  0
  4  6  1  0  0  0  0
  4  7  1  0  0  0  0
  7  8  1  0  0  0  0
  7  9  1  0  0  0  0
  7 10  1  0  0  0  0
 10 11  1  0  0  0  0
 10 12  1  0  0  0  0
 10 13  1  0  0  0  0
 13 14  1  0  0  0  0
 13 15  1  0  0  0  0
 13 16  1  0  0  0  0
 16 17  1  0  0  0  0
 16 18  1  0  0  0  0
 16 19  1  0  0  0  0
 19 20  1  0  0  0  0
 19 21  1  0  0  0  0
 19 22  1  0  0  0  0
M  END
> <VConfSearch Rank>
114

> <Conf_Id>
8

> <Delta U+W>
1.886

> <U+W>
-51.274

> <U>
11.237

> <W>
-62.510

> <W(PB)>
-64.777

> <W(SA)>
2.267

> <Valence>
9.029

> <Coulomb>
1.667

> <VdW>
0.540

> <VdW6>
-8.825

> <VdW12>
9.365

> <Bond>
0.186

> <Angle>
3.195

> <Pdih>
5.642

> <Idih>
0.007

> <Tether>
0.000

$$$$
VeraChem MOL file


 22 21  0  0  0  0  0  0  0  0999 V2000     
   20.3664   16.6517   20.4961 C   0  0  0  0  0  0  0  0  0  0  0  0
   19.3799   16.0492   20.8710 O   0  5  0  0  0  0  0  0  0  0  0  0
   21.4606   16.1375   20.3706 O   0  0  0  0  0  0  0  0  0  0  0  0
   20.2194   18.1269   20.1340 C   0  0  0  0  0  0  0  0  0  0  0  0
   19.1535   18.3588   20.0299 H   0  0  0  0  0  0  0  0  0  0  0  0
   20.6636   18.2640   19.1412 H   0  0  0  0  0  0  0  0  0  0  0  0
   20.8985   19.0987   21.1378 C   0  0  0  0  0  0  0  0  0  0  0  0
   21.9767   18.8877   21.1550 H   0  0  0  0  0  0  0  0  0  0  0  0
   20.7929   20.1283   20.7704 H   0  0  0  0  0  0  0  0  0  0  0  0
   20.3534   19.0156   22.5851 C   0  0  0  0  0  0  0  0  0  0  0  0
   20.9672   19.6708   23.2159 H   0  0  0  0  0  0  0  0  0  0  0  0
   20.4872   17.9969   22.9741 H   0  0  0  0  0  0  0  0  0  0  0  0
   18.8657   19.4269   22.7078 C   0  0  0  0  0  0  0  0  0  0  0  0
   18.7241   20.4376   22.3018 H   0  0  0  0  0  0  0  0  0  0  0  0
   18.2520   18.7536   22.0954 H   0  0  0  0  0  0  0  0  0  0  0  0
   18.3308   19.3714   24.1580 C   0  0  0  0  0  0  0  0  0  0  0  0
   18.4854   18.3654   24.5718 H   0  0  0  0  0  0  0  0  0  0  0  0
   17.2444   19.5345   24.1378 H   0  0  0  0  0  0  0  0  0  0  0  0
   18.9714   20.4229   25.0901 C   0  0  0  0  0  0  0  0  0  0  0  0
   20.0406   20.2287   25.2403 H   0  0  0  0  0  0  0  0  0  0  0  0
   18.4898   20.4049   26.0763 H   0  0  0  0  0  0  0  0  0  0  0  0
   18.8589   21.4340   24.6778 H   0  0  0  0  0  0  0  0  0  0  0  0
  1  2  1  0  0  0  0
  1  3  2  0  0  0  0
  1  4  1  0  0  0  0
  4  5  1  0  0  0  0
  4  6  1  0  0  0  0
  4  7  1  0  0  0  0
  7  8  1  0  0  0  0
  7  9  1  0  0  0  0
  7 10  1  0  0  0  0
 10 11  1  0  0  0  0
 10 12  1  0  0  0  0
 10 13  1  0  0  0  0
 13 14  1  0  0  0  0
 13 15  1  0  0  0  0
 13 16  1  0  0  0  0
 16 17  1  0  0  0  0
 16 18  1  0  0  0  0
 16 19  1  0  0  0  0
 19 20  1  0  0  0  0
 19 21  1  0  0  0  0
 19 22  1  0  0  0  0
M  END
> <VConfSearch Rank>
115

> <Conf_Id>
93

> <Delta U+W>
1.836

> <U+W>
-51.323

> <U>
10.427

> <W>
-61.751

> <W(PB)>
-63.980

> <W(SA)>
2.230

> <Valence>
8.446

> <Coulomb>
1.306

> <VdW>
0.676

> <VdW6>
-8.928

> <VdW12>
9.604

> <Bond>
0.209

> <Angle>
3.066

> <Pdih>
5.170

> <Idih>
0.001

> <Tether>
0.000

$$$$
VeraChem MOL file


 22 21  0  0  0  0  0  0  0  0999 V2000     
   17.9099   19.7097   20.0086 C   0  0  0  0  0  0  0  0  0  0  0  0
   17.7802   18.9889   19.0385 O   0  5  0  0  0  0  0  0  0  0  0  0
   18.3683   20.8338   19.9540 O   0  0  0  0  0  0  0  0  0  0  0  0
   17.4433   19.1833   21.3629 C   0  0  0  0  0  0  0  0  0  0  0  0
   16.4260   18.7973   21.2289 H   0  0  0  0  0  0  0  0  0  0  0  0
   17.3645   20.0257   22.0592 H   0  0  0  0  0  0  0  0  0  0  0  0
   18.3428   18.0631   21.9538 C   0  0  0  0  0  0  0  0  0  0  0  0
   17.9031   17.7066   22.8950 H   0  0  0  0  0  0  0  0  0  0  0  0
   18.3328   17.2062   21.2661 H   0  0  0  0  0  0  0  0  0  0  0  0
   19.8128   18.4814   22.2044 C   0  0  0  0  0  0  0  0  0  0  0  0
   20.2721   18.8061   21.2607 H   0  0  0  0  0  0  0  0  0  0  0  0
   20.3672   17.5915   22.5281 H   0  0  0  0  0  0  0  0  0  0  0  0
   19.9635   19.5980   23.2663 C   0  0  0  0  0  0  0  0  0  0  0  0
   19.4288   20.4948   22.9274 H   0  0  0  0  0  0  0  0  0  0  0  0
   19.4880   19.2850   24.2057 H   0  0  0  0  0  0  0  0  0  0  0  0
   21.4338   19.9942   23.5367 C   0  0  0  0  0  0  0  0  0  0  0  0
   21.4448   20.8808   24.1854 H   0  0  0  0  0  0  0  0  0  0  0  0
   21.9162   20.2928   22.5957 H   0  0  0  0  0  0  0  0  0  0  0  0
   22.2573   18.8764   24.2129 C   0  0  0  0  0  0  0  0  0  0  0  0
   22.3789   18.0102   23.5510 H   0  0  0  0  0  0  0  0  0  0  0  0
   21.7744   18.5380   25.1389 H   0  0  0  0  0  0  0  0  0  0  0  0
   23.2605   19.2409   24.4690 H   0  0  0  0  0  0  0  0  0  0  0  0
  1  2  1  0  0  0  0
  1  3  2  0  0  0  0
  1  4  1  0  0  0  0
  4  5  1  0  0  0  0
  4  6  1  0  0  0  0
  4  7  1  0  0  0  0
  7  8  1  0  0  0  0
  7  9  1  0  0  0  0
  7 10  1  0  0  0  0
 10 11  1  0  0  0  0
 10 12  1  0  0  0  0
 10 13  1  0  0  0  0
 13 14  1  0  0  0  0
 13 15  1  0  0  0  0
 13 16  1  0  0  0  0
 16 17  1  0  0  0  0
 16 18  1  0  0  0  0
 16 19  1  0  0  0  0
 19 20  1  0  0  0  0
 19 21  1  0  0  0  0
 19 22  1  0  0  0  0
M  END
> <VConfSearch Rank>
116

> <Conf_Id>
70

> <Delta U+W>
1.803

> <U+W>
-51.356

> <U>
10.428

> <W>
-61.784

> <W(PB)>
-64.014

> <W(SA)>
2.230

> <Valence>
8.445

> <Coulomb>
1.306

> <VdW>
0.676

> <VdW6>
-8.929

> <VdW12>
9.605

> <Bond>
0.209

> <Angle>
3.066

> <Pdih>
5.170

> <Idih>
0.001

> <Tether>
0.000

$$$$
VeraChem MOL file


 22 21  0  0  0  0  0  0  0  0999 V2000     
   21.0784   21.4981   20.6469 C   0  0  0  0  0  0  0  0  0  0  0  0
   20.6240   22.5019   21.1596 O   0  5  0  0  0  0  0  0  0  0  0  0
   20.9733   21.2407   19.4639 O   0  0  0  0  0  0  0  0  0  0  0  0
   21.8408   20.5190   21.5353 C   0  0  0  0  0  0  0  0  0  0  0  0
   22.5162   21.1070   22.1679 H   0  0  0  0  0  0  0  0  0  0  0  0
   22.4720   19.8872   20.8988 H   0  0  0  0  0  0  0  0  0  0  0  0
   20.9290   19.6388   22.4291 C   0  0  0  0  0  0  0  0  0  0  0  0
   21.5572   19.0641   23.1229 H   0  0  0  0  0  0  0  0  0  0  0  0
   20.2943   20.2924   23.0419 H   0  0  0  0  0  0  0  0  0  0  0  0
   20.0549   18.6641   21.6044 C   0  0  0  0  0  0  0  0  0  0  0  0
   20.7034   18.0818   20.9356 H   0  0  0  0  0  0  0  0  0  0  0  0
   19.3727   19.2316   20.9564 H   0  0  0  0  0  0  0  0  0  0  0  0
   19.2386   17.6805   22.4761 C   0  0  0  0  0  0  0  0  0  0  0  0
   18.7491   16.9530   21.8143 H   0  0  0  0  0  0  0  0  0  0  0  0
   19.9193   17.1062   23.1194 H   0  0  0  0  0  0  0  0  0  0  0  0
   18.1628   18.3732   23.3426 C   0  0  0  0  0  0  0  0  0  0  0  0
   17.5143   18.9899   22.7051 H   0  0  0  0  0  0  0  0  0  0  0  0
   18.6372   19.0491   24.0661 H   0  0  0  0  0  0  0  0  0  0  0  0
   17.3033   17.3453   24.1057 C   0  0  0  0  0  0  0  0  0  0  0  0
   16.7818   16.6749   23.4100 H   0  0  0  0  0  0  0  0  0  0  0  0
   16.5467   17.8526   24.7183 H   0  0  0  0  0  0  0  0  0  0  0  0
   17.9241   16.7324   24.7723 H   0  0  0  0  0  0  0  0  0  0  0  0
  1  2  1  0  0  0  0
  1  3  2  0  0  0  0
  1  4  1  0  0  0  0
  4  5  1  0  0  0  0
  4  6  1  0  0  0  0
  4  7  1  0  0  0  0
  7  8  1  0  0  0  0
  7  9  1  0  0  0  0
  7 10  1  0  0  0  0
 10 11  1  0  0  0  0
 10 12  1  0  0  0  0
 10 13  1  0  0  0  0
 13 14  1  0  0  0  0
 13 15  1  0  0  0  0
 13 16  1  0  0  0  0
 16 17  1  0  0  0  0
 16 18  1  0  0  0  0
 16 19  1  0  0  0  0
 19 20  1  0  0  0  0
 19 21  1  0  0  0  0
 19 22  1  0  0  0  0
M  END
> <VConfSearch Rank>
117

> <Conf_Id>
85

> <Delta U+W>
0.707

> <U+W>
-52.452

> <U>
8.925

> <W>
-61.378

> <W(PB)>
-63.661

> <W(SA)>
2.283

> <Valence>
7.881

> <Coulomb>
0.349

> <VdW>
0.695

> <VdW6>
-8.049

> <VdW12>
8.743

> <Bond>
0.156

> <Angle>
2.660

> <Pdih>
5.064

> <Idih>
0.001

> <Tether>
0.000

$$$$
VeraChem MOL file


 22 21  0  0  0  0  0  0  0  0999 V2000     
   19.7868   22.1405   21.6869 C   0  0  0  0  0  0  0  0  0  0  0  0
   19.1318   22.3888   20.6938 O   0  5  0  0  0  0  0  0  0  0  0  0
   19.6792   22.7502   22.7327 O   0  0  0  0  0  0  0  0  0  0  0  0
   20.8174   21.0173   21.6118 C   0  0  0  0  0  0  0  0  0  0  0  0
   21.7447   21.3945   22.0587 H   0  0  0  0  0  0  0  0  0  0  0  0
   21.0347   20.8104   20.5569 H   0  0  0  0  0  0  0  0  0  0  0  0
   20.3877   19.7145   22.3355 C   0  0  0  0  0  0  0  0  0  0  0  0
   21.2477   19.0336   22.3605 H   0  0  0  0  0  0  0  0  0  0  0  0
   20.1279   19.9446   23.3780 H   0  0  0  0  0  0  0  0  0  0  0  0
   19.1991   19.0115   21.6397 C   0  0  0  0  0  0  0  0  0  0  0  0
   19.4968   18.7086   20.6266 H   0  0  0  0  0  0  0  0  0  0  0  0
   18.3774   19.7300   21.5156 H   0  0  0  0  0  0  0  0  0  0  0  0
   18.6510   17.7811   22.4053 C   0  0  0  0  0  0  0  0  0  0  0  0
   18.2644   18.0897   23.3862 H   0  0  0  0  0  0  0  0  0  0  0  0
   17.7822   17.4059   21.8473 H   0  0  0  0  0  0  0  0  0  0  0  0
   19.6587   16.6157   22.5678 C   0  0  0  0  0  0  0  0  0  0  0  0
   20.3875   16.6244   21.7456 H   0  0  0  0  0  0  0  0  0  0  0  0
   19.1134   15.6656   22.4821 H   0  0  0  0  0  0  0  0  0  0  0  0
   20.3872   16.6262   23.9302 C   0  0  0  0  0  0  0  0  0  0  0  0
   20.9667   17.5447   24.0765 H   0  0  0  0  0  0  0  0  0  0  0  0
   21.0799   15.7778   24.0015 H   0  0  0  0  0  0  0  0  0  0  0  0
   19.6695   16.5437   24.7568 H   0  0  0  0  0  0  0  0  0  0  0  0
  1  2  1  0  0  0  0
  1  3  2  0  0  0  0
  1  4  1  0  0  0  0
  4  5  1  0  0  0  0
  4  6  1  0  0  0  0
  4  7  1  0  0  0  0
  7  8  1  0  0  0  0
  7  9  1  0  0  0  0
  7 10  1  0  0  0  0
 10 11  1  0  0  0  0
 10 12  1  0  0  0  0
 10 13  1  0  0  0  0
 13 14  1  0  0  0  0
 13 15  1  0  0  0  0
 13 16  1  0  0  0  0
 16 17  1  0  0  0  0
 16 18  1  0  0  0  0
 16 19  1  0  0  0  0
 19 20  1  0  0  0  0
 19 21  1  0  0  0  0
 19 22  1  0  0  0  0
M  END
> <VConfSearch Rank>
118

> <Conf_Id>
82

> <Delta U+W>
3.438

> <U+W>
-49.721

> <U>
11.773

> <W>
-61.495

> <W(PB)>
-63.749

> <W(SA)>
2.254

> <Valence>
10.419

> <Coulomb>
0.565

> <VdW>
0.789

> <VdW6>
-8.847

> <VdW12>
9.636

> <Bond>
0.200

> <Angle>
3.187

> <Pdih>
7.032

> <Idih>
0.001

> <Tether>
0.000

$$$$
VeraChem MOL file


 22 21  0  0  0  0  0  0  0  0999 V2000     
   18.5435   18.9624   19.3454 C   0  0  0  0  0  0  0  0  0  0  0  0
   19.3961   19.2931   18.5450 O   0  5  0  0  0  0  0  0  0  0  0  0
   17.7761   18.0373   19.1662 O   0  0  0  0  0  0  0  0  0  0  0  0
   18.4160   19.7687   20.6350 C   0  0  0  0  0  0  0  0  0  0  0  0
   17.4260   19.5830   21.0687 H   0  0  0  0  0  0  0  0  0  0  0  0
   18.4485   20.8299   20.3613 H   0  0  0  0  0  0  0  0  0  0  0  0
   19.5228   19.4705   21.6799 C   0  0  0  0  0  0  0  0  0  0  0  0
   20.5093   19.6151   21.2183 H   0  0  0  0  0  0  0  0  0  0  0  0
   19.4369   20.2028   22.4925 H   0  0  0  0  0  0  0  0  0  0  0  0
   19.4196   18.0430   22.2652 C   0  0  0  0  0  0  0  0  0  0  0  0
   19.3936   17.3164   21.4416 H   0  0  0  0  0  0  0  0  0  0  0  0
   18.4654   17.9356   22.7988 H   0  0  0  0  0  0  0  0  0  0  0  0
   20.5849   17.6572   23.2106 C   0  0  0  0  0  0  0  0  0  0  0  0
   20.4315   16.6124   23.5136 H   0  0  0  0  0  0  0  0  0  0  0  0
   21.5360   17.6713   22.6609 H   0  0  0  0  0  0  0  0  0  0  0  0
   20.6933   18.5194   24.4930 C   0  0  0  0  0  0  0  0  0  0  0  0
   21.0084   17.8739   25.3244 H   0  0  0  0  0  0  0  0  0  0  0  0
   19.7067   18.9151   24.7709 H   0  0  0  0  0  0  0  0  0  0  0  0
   21.7167   19.6702   24.3684 C   0  0  0  0  0  0  0  0  0  0  0  0
   22.7213   19.2781   24.1629 H   0  0  0  0  0  0  0  0  0  0  0  0
   21.7651   20.2436   25.3031 H   0  0  0  0  0  0  0  0  0  0  0  0
   21.4541   20.3650   23.5627 H   0  0  0  0  0  0  0  0  0  0  0  0
  1  2  1  0  0  0  0
  1  3  2  0  0  0  0
  1  4  1  0  0  0  0
  4  5  1  0  0  0  0
  4  6  1  0  0  0  0
  4  7  1  0  0  0  0
  7  8  1  0  0  0  0
  7  9  1  0  0  0  0
  7 10  1  0  0  0  0
 10 11  1  0  0  0  0
 10 12  1  0  0  0  0
 10 13  1  0  0  0  0
 13 14  1  0  0  0  0
 13 15  1  0  0  0  0
 13 16  1  0  0  0  0
 16 17  1  0  0  0  0
 16 18  1  0  0  0  0
 16 19  1  0  0  0  0
 19 20  1  0  0  0  0
 19 21  1  0  0  0  0
 19 22  1  0  0  0  0
M  END
> <VConfSearch Rank>
119

> <Conf_Id>
94

> <Delta U+W>
3.471

> <U+W>
-49.688

> <U>
11.773

> <W>
-61.461

> <W(PB)>
-63.710

> <W(SA)>
2.248

> <Valence>
10.419

> <Coulomb>
0.566

> <VdW>
0.789

> <VdW6>
-8.847

> <VdW12>
9.636

> <Bond>
0.200

> <Angle>
3.187

> <Pdih>
7.032

> <Idih>
0.001

> <Tether>
0.000

$$$$
VeraChem MOL file


 22 21  0  0  0  0  0  0  0  0999 V2000     
   22.5555   20.1906   23.8897 C   0  0  0  0  0  0  0  0  0  0  0  0
   23.7000   20.3334   23.5072 O   0  5  0  0  0  0  0  0  0  0  0  0
   22.2562   19.9599   25.0446 O   0  0  0  0  0  0  0  0  0  0  0  0
   21.4352   20.2873   22.8604 C   0  0  0  0  0  0  0  0  0  0  0  0
   21.7391   21.0081   22.0921 H   0  0  0  0  0  0  0  0  0  0  0  0
   20.5538   20.7001   23.3642 H   0  0  0  0  0  0  0  0  0  0  0  0
   21.0992   18.9209   22.2089 C   0  0  0  0  0  0  0  0  0  0  0  0
   22.0195   18.4961   21.7851 H   0  0  0  0  0  0  0  0  0  0  0  0
   20.7679   18.2161   22.9830 H   0  0  0  0  0  0  0  0  0  0  0  0
   20.0364   19.0163   21.0856 C   0  0  0  0  0  0  0  0  0  0  0  0
   19.8961   18.0209   20.6440 H   0  0  0  0  0  0  0  0  0  0  0  0
   20.4308   19.6469   20.2773 H   0  0  0  0  0  0  0  0  0  0  0  0
   18.6594   19.5798   21.5254 C   0  0  0  0  0  0  0  0  0  0  0  0
   18.7729   20.6328   21.8144 H   0  0  0  0  0  0  0  0  0  0  0  0
   17.9884   19.5821   20.6557 H   0  0  0  0  0  0  0  0  0  0  0  0
   17.9727   18.8132   22.6824 C   0  0  0  0  0  0  0  0  0  0  0  0
   17.0258   19.3158   22.9223 H   0  0  0  0  0  0  0  0  0  0  0  0
   18.5864   18.8714   23.5913 H   0  0  0  0  0  0  0  0  0  0  0  0
   17.6793   17.3353   22.3453 C   0  0  0  0  0  0  0  0  0  0  0  0
   17.0798   17.2530   21.4294 H   0  0  0  0  0  0  0  0  0  0  0  0
   17.1196   16.8589   23.1605 H   0  0  0  0  0  0  0  0  0  0  0  0
   18.6072   16.7675   22.2021 H   0  0  0  0  0  0  0  0  0  0  0  0
  1  2  1  0  0  0  0
  1  3  2  0  0  0  0
  1  4  1  0  0  0  0
  4  5  1  0  0  0  0
  4  6  1  0  0  0  0
  4  7  1  0  0  0  0
  7  8  1  0  0  0  0
  7  9  1  0  0  0  0
  7 10  1  0  0  0  0
 10 11  1  0  0  0  0
 10 12  1  0  0  0  0
 10 13  1  0  0  0  0
 13 14  1  0  0  0  0
 13 15  1  0  0  0  0
 13 16  1  0  0  0  0
 16 17  1  0  0  0  0
 16 18  1  0  0  0  0
 16 19  1  0  0  0  0
 19 20  1  0  0  0  0
 19 21  1  0  0  0  0
 19 22  1  0  0  0  0
M  END
> <VConfSearch Rank>
120

> <Conf_Id>
56

> <Delta U+W>
0.853

> <U+W>
-52.307

> <U>
8.874

> <W>
-61.181

> <W(PB)>
-63.413

> <W(SA)>
2.232

> <Valence>
8.479

> <Coulomb>
-0.357

> <VdW>
0.753

> <VdW6>
-9.081

> <VdW12>
9.833

> <Bond>
0.221

> <Angle>
3.208

> <Pdih>
5.050

> <Idih>
0.000

> <Tether>
0.000

$$$$
VeraChem MOL file


 22 21  0  0  0  0  0  0  0  0999 V2000     
   20.0529   16.1374   19.2458 C   0  0  0  0  0  0  0  0  0  0  0  0
   21.2614   16.0428   19.3416 O   0  5  0  0  0  0  0  0  0  0  0  0
   19.3970   15.4863   18.4572 O   0  0  0  0  0  0  0  0  0  0  0  0
   19.2942   17.1136   20.1463 C   0  0  0  0  0  0  0  0  0  0  0  0
   18.5482   16.5334   20.7021 H   0  0  0  0  0  0  0  0  0  0  0  0
   18.7444   17.8013   19.4931 H   0  0  0  0  0  0  0  0  0  0  0  0
   20.1741   17.9218   21.1368 C   0  0  0  0  0  0  0  0  0  0  0  0
   20.7268   17.2269   21.7840 H   0  0  0  0  0  0  0  0  0  0  0  0
   20.9231   18.4960   20.5739 H   0  0  0  0  0  0  0  0  0  0  0  0
   19.3296   18.8800   22.0048 C   0  0  0  0  0  0  0  0  0  0  0  0
   18.5816   18.3037   22.5665 H   0  0  0  0  0  0  0  0  0  0  0  0
   18.7779   19.5737   21.3556 H   0  0  0  0  0  0  0  0  0  0  0  0
   20.2068   19.6831   22.9892 C   0  0  0  0  0  0  0  0  0  0  0  0
   20.7588   18.9898   23.6386 H   0  0  0  0  0  0  0  0  0  0  0  0
   20.9549   20.2595   22.4279 H   0  0  0  0  0  0  0  0  0  0  0  0
   19.3635   20.6407   23.8570 C   0  0  0  0  0  0  0  0  0  0  0  0
   18.6152   20.0673   24.4215 H   0  0  0  0  0  0  0  0  0  0  0  0
   18.8113   21.3371   23.2108 H   0  0  0  0  0  0  0  0  0  0  0  0
   20.2431   21.4408   24.8385 C   0  0  0  0  0  0  0  0  0  0  0  0
   20.7836   20.7693   25.5186 H   0  0  0  0  0  0  0  0  0  0  0  0
   19.6278   22.1161   25.4472 H   0  0  0  0  0  0  0  0  0  0  0  0
   20.9811   22.0487   24.2988 H   0  0  0  0  0  0  0  0  0  0  0  0
  1  2  1  0  0  0  0
  1  3  2  0  0  0  0
  1  4  1  0  0  0  0
  4  5  1  0  0  0  0
  4  6  1  0  0  0  0
  4  7  1  0  0  0  0
  7  8  1  0  0  0  0
  7  9  1  0  0  0  0
  7 10  1  0  0  0  0
 10 11  1  0  0  0  0
 10 12  1  0  0  0  0
 10 13  1  0  0  0  0
 13 14  1  0  0  0  0
 13 15  1  0  0  0  0
 13 16  1  0  0  0  0
 16 17  1  0  0  0  0
 16 18  1  0  0  0  0
 16 19  1  0  0  0  0
 19 20  1  0  0  0  0
 19 21  1  0  0  0  0
 19 22  1  0  0  0  0
M  END
> <VConfSearch Rank>
121

> <Conf_Id>
0

> <Delta U+W>
0.000

> <U+W>
-53.159

> <U>
6.763

> <W>
-59.922

> <W(PB)>
-62.256

> <W(SA)>
2.334

> <Valence>
7.600

> <Coulomb>
-2.139

> <VdW>
1.302

> <VdW6>
-6.786

> <VdW12>
8.088

> <Bond>
0.134

> <Angle>
2.720

> <Pdih>
4.746

> <Idih>
0.000

> <Tether>
0.000

$$$$
VeraChem MOL file


 22 21  0  0  0  0  0  0  0  0999 V2000     
   21.3511   15.3709   23.0354 C   0  0  0  0  0  0  0  0  0  0  0  0
   22.5079   15.2285   22.6920 O   0  5  0  0  0  0  0  0  0  0  0  0
   20.5382   14.4680   23.0528 O   0  0  0  0  0  0  0  0  0  0  0  0
   20.8883   16.7643   23.4457 C   0  0  0  0  0  0  0  0  0  0  0  0
   21.7349   17.2803   23.9143 H   0  0  0  0  0  0  0  0  0  0  0  0
   20.1117   16.6535   24.2120 H   0  0  0  0  0  0  0  0  0  0  0  0
   20.3493   17.5943   22.2546 C   0  0  0  0  0  0  0  0  0  0  0  0
   21.1341   17.6849   21.4908 H   0  0  0  0  0  0  0  0  0  0  0  0
   19.5110   17.0581   21.7885 H   0  0  0  0  0  0  0  0  0  0  0  0
   19.8874   19.0000   22.6958 C   0  0  0  0  0  0  0  0  0  0  0  0
   20.7274   19.5328   23.1624 H   0  0  0  0  0  0  0  0  0  0  0  0
   19.1038   18.9058   23.4602 H   0  0  0  0  0  0  0  0  0  0  0  0
   19.3506   19.8250   21.5064 C   0  0  0  0  0  0  0  0  0  0  0  0
   20.1339   19.9194   20.7418 H   0  0  0  0  0  0  0  0  0  0  0  0
   18.5106   19.2925   21.0396 H   0  0  0  0  0  0  0  0  0  0  0  0
   18.8888   21.2300   21.9466 C   0  0  0  0  0  0  0  0  0  0  0  0
   19.7270   21.7666   22.4124 H   0  0  0  0  0  0  0  0  0  0  0  0
   18.1037   21.1397   22.7101 H   0  0  0  0  0  0  0  0  0  0  0  0
   18.3535   22.0507   20.7561 C   0  0  0  0  0  0  0  0  0  0  0  0
   17.4934   21.5520   20.2903 H   0  0  0  0  0  0  0  0  0  0  0  0
   19.1289   22.1835   19.9903 H   0  0  0  0  0  0  0  0  0  0  0  0
   18.0298   23.0462   21.0868 H   0  0  0  0  0  0  0  0  0  0  0  0
  1  2  1  0  0  0  0
  1  3  2  0  0  0  0
  1  4  1  0  0  0  0
  4  5  1  0  0  0  0
  4  6  1  0  0  0  0
  4  7  1  0  0  0  0
  7  8  1  0  0  0  0
  7  9  1  0  0  0  0
  7 10  1  0  0  0  0
 10 11  1  0  0  0  0
 10 12  1  0  0  0  0
 10 13  1  0  0  0  0
 13 14  1  0  0  0  0
 13 15  1  0  0  0  0
 13 16  1  0  0  0  0
 16 17  1  0  0  0  0
 16 18  1  0  0  0  0
 16 19  1  0  0  0  0
 19 20  1  0  0  0  0
 19 21  1  0  0  0  0
 19 22  1  0  0  0  0
M  END
> <VConfSearch Rank>
122

> <Conf_Id>
10

> <Delta U+W>
-1.291

> <U+W>
-54.451

> <U>
5.779

> <W>
-60.230

> <W(PB)>
-62.557

> <W(SA)>
2.328

> <Valence>
7.101

> <Coulomb>
-2.079

> <VdW>
0.757

> <VdW6>
-6.496

> <VdW12>
7.253

> <Bond>
0.100

> <Angle>
2.262

> <Pdih>
4.738

> <Idih>
0.001

> <Tether>
0.000

$$$$
VeraChem MOL file


 22 21  0  0  0  0  0  0  0  0999 V2000     
   17.3816   21.7925   21.3535 C   0  0  0  0  0  0  0  0  0  0  0  0
   17.8380   22.5927   20.5612 O   0  5  0  0  0  0  0  0  0  0  0  0
   16.1934   21.5700   21.4766 O   0  0  0  0  0  0  0  0  0  0  0  0
   18.3551   21.0089   22.2269 C   0  0  0  0  0  0  0  0  0  0  0  0
   17.8654   20.8082   23.1874 H   0  0  0  0  0  0  0  0  0  0  0  0
   19.2208   21.6501   22.4320 H   0  0  0  0  0  0  0  0  0  0  0  0
   18.8153   19.6822   21.5741 C   0  0  0  0  0  0  0  0  0  0  0  0
   17.9360   19.0578   21.3631 H   0  0  0  0  0  0  0  0  0  0  0  0
   19.2920   19.8991   20.6081 H   0  0  0  0  0  0  0  0  0  0  0  0
   19.7996   18.9081   22.4776 C   0  0  0  0  0  0  0  0  0  0  0  0
   19.3198   18.6908   23.4416 H   0  0  0  0  0  0  0  0  0  0  0  0
   20.6702   19.5430   22.6879 H   0  0  0  0  0  0  0  0  0  0  0  0
   20.2589   17.5864   21.8200 C   0  0  0  0  0  0  0  0  0  0  0  0
   19.3734   16.9941   21.5517 H   0  0  0  0  0  0  0  0  0  0  0  0
   20.7844   17.8036   20.8799 H   0  0  0  0  0  0  0  0  0  0  0  0
   21.1654   16.7281   22.7326 C   0  0  0  0  0  0  0  0  0  0  0  0
   21.3478   15.7628   22.2407 H   0  0  0  0  0  0  0  0  0  0  0  0
   20.6406   16.5035   23.6715 H   0  0  0  0  0  0  0  0  0  0  0  0
   22.5244   17.3921   23.0431 C   0  0  0  0  0  0  0  0  0  0  0  0
   23.1632   16.7086   23.6173 H   0  0  0  0  0  0  0  0  0  0  0  0
   22.3976   18.3056   23.6374 H   0  0  0  0  0  0  0  0  0  0  0  0
   23.0546   17.6533   22.1180 H   0  0  0  0  0  0  0  0  0  0  0  0
  1  2  1  0  0  0  0
  1  3  2  0  0  0  0
  1  4  1  0  0  0  0
  4  5  1  0  0  0  0
  4  6  1  0  0  0  0
  4  7  1  0  0  0  0
  7  8  1  0  0  0  0
  7  9  1  0  0  0  0
  7 10  1  0  0  0  0
 10 11  1  0  0  0  0
 10 12  1  0  0  0  0
 10 13  1  0  0  0  0
 13 14  1  0  0  0  0
 13 15  1  0  0  0  0
 13 16  1  0  0  0  0
 16 17  1  0  0  0  0
 16 18  1  0  0  0  0
 16 19  1  0  0  0  0
 19 20  1  0  0  0  0
 19 21  1  0  0  0  0
 19 22  1  0  0  0  0
M  END
> <VConfSearch Rank>
123

> <Conf_Id>
37

> <Delta U+W>
-0.345

> <U+W>
-53.504

> <U>
6.751

> <W>
-60.255

> <W(PB)>
-62.592

> <W(SA)>
2.336

> <Valence>
7.602

> <Coulomb>
-1.744

> <VdW>
0.894

> <VdW6>
-7.110

> <VdW12>
8.004

> <Bond>
0.131

> <Angle>
2.489

> <Pdih>
4.982

> <Idih>
0.001

> <Tether>
0.000

$$$$
VeraChem MOL file


 22 21  0  0  0  0  0  0  0  0999 V2000     
   15.9970   18.3283   21.7165 C   0  0  0  0  0  0  0  0  0  0  0  0
   15.2986   19.1540   22.2704 O   0  5  0  0  0  0  0  0  0  0  0  0
   15.6414   17.1885   21.4910 O   0  0  0  0  0  0  0  0  0  0  0  0
   17.4051   18.7387   21.3007 C   0  0  0  0  0  0  0  0  0  0  0  0
   17.3856   19.8026   21.0355 H   0  0  0  0  0  0  0  0  0  0  0  0
   17.6679   18.1830   20.3925 H   0  0  0  0  0  0  0  0  0  0  0  0
   18.4580   18.4829   22.4071 C   0  0  0  0  0  0  0  0  0  0  0  0
   18.1741   19.0361   23.3132 H   0  0  0  0  0  0  0  0  0  0  0  0
   18.4552   17.4161   22.6705 H   0  0  0  0  0  0  0  0  0  0  0  0
   19.8745   18.9063   21.9617 C   0  0  0  0  0  0  0  0  0  0  0  0
   19.8643   19.9710   21.6942 H   0  0  0  0  0  0  0  0  0  0  0  0
   20.1565   18.3502   21.0572 H   0  0  0  0  0  0  0  0  0  0  0  0
   20.9211   18.6526   23.0710 C   0  0  0  0  0  0  0  0  0  0  0  0
   20.6699   19.2471   23.9601 H   0  0  0  0  0  0  0  0  0  0  0  0
   20.8694   17.5986   23.3768 H   0  0  0  0  0  0  0  0  0  0  0  0
   22.3704   18.9658   22.6322 C   0  0  0  0  0  0  0  0  0  0  0  0
   22.6275   18.3681   21.7468 H   0  0  0  0  0  0  0  0  0  0  0  0
   23.0564   18.6493   23.4300 H   0  0  0  0  0  0  0  0  0  0  0  0
   22.6097   20.4622   22.3360 C   0  0  0  0  0  0  0  0  0  0  0  0
   22.3308   21.0828   23.1976 H   0  0  0  0  0  0  0  0  0  0  0  0
   22.0285   20.7968   21.4677 H   0  0  0  0  0  0  0  0  0  0  0  0
   23.6695   20.6453   22.1166 H   0  0  0  0  0  0  0  0  0  0  0  0
  1  2  1  0  0  0  0
  1  3  2  0  0  0  0
  1  4  1  0  0  0  0
  4  5  1  0  0  0  0
  4  6  1  0  0  0  0
  4  7  1  0  0  0  0
  7  8  1  0  0  0  0
  7  9  1  0  0  0  0
  7 10  1  0  0  0  0
 10 11  1  0  0  0  0
 10 12  1  0  0  0  0
 10 13  1  0  0  0  0
 13 14  1  0  0  0  0
 13 15  1  0  0  0  0
 13 16  1  0  0  0  0
 16 17  1  0  0  0  0
 16 18  1  0  0  0  0
 16 19  1  0  0  0  0
 19 20  1  0  0  0  0
 19 21  1  0  0  0  0
 19 22  1  0  0  0  0
M  END
> <VConfSearch Rank>
124

> <Conf_Id>
38

> <Delta U+W>
-0.439

> <U+W>
-53.598

> <U>
6.751

> <W>
-60.350

> <W(PB)>
-62.659

> <W(SA)>
2.309

> <Valence>
7.602

> <Coulomb>
-1.744

> <VdW>
0.893

> <VdW6>
-7.110

> <VdW12>
8.004

> <Bond>
0.131

> <Angle>
2.489

> <Pdih>
4.981

> <Idih>
0.001

> <Tether>
0.000

$$$$
VeraChem MOL file


 22 21  0  0  0  0  0  0  0  0999 V2000     
   18.1161   20.4026   25.2619 C   0  0  0  0  0  0  0  0  0  0  0  0
   16.9213   20.2956   25.4563 O   0  5  0  0  0  0  0  0  0  0  0  0
   18.8119   21.2432   25.7964 O   0  0  0  0  0  0  0  0  0  0  0  0
   18.7738   19.4437   24.2759 C   0  0  0  0  0  0  0  0  0  0  0  0
   18.2383   18.4879   24.3225 H   0  0  0  0  0  0  0  0  0  0  0  0
   19.7971   19.2610   24.6222 H   0  0  0  0  0  0  0  0  0  0  0  0
   18.7751   19.9858   22.8227 C   0  0  0  0  0  0  0  0  0  0  0  0
   17.7450   20.2491   22.5454 H   0  0  0  0  0  0  0  0  0  0  0  0
   19.3555   20.9178   22.7785 H   0  0  0  0  0  0  0  0  0  0  0  0
   19.3239   18.9781   21.7844 C   0  0  0  0  0  0  0  0  0  0  0  0
   19.1519   19.3944   20.7837 H   0  0  0  0  0  0  0  0  0  0  0  0
   18.7471   18.0447   21.8371 H   0  0  0  0  0  0  0  0  0  0  0  0
   20.8315   18.6716   21.9616 C   0  0  0  0  0  0  0  0  0  0  0  0
   21.4080   19.6053   21.9107 H   0  0  0  0  0  0  0  0  0  0  0  0
   21.0045   18.2524   22.9608 H   0  0  0  0  0  0  0  0  0  0  0  0
   21.3804   17.6677   20.9210 C   0  0  0  0  0  0  0  0  0  0  0  0
   20.7988   16.7364   20.9607 H   0  0  0  0  0  0  0  0  0  0  0  0
   22.4099   17.4022   21.1982 H   0  0  0  0  0  0  0  0  0  0  0  0
   21.3833   18.2184   19.4782 C   0  0  0  0  0  0  0  0  0  0  0  0
   20.3636   18.3851   19.1097 H   0  0  0  0  0  0  0  0  0  0  0  0
   21.8694   17.5074   18.7976 H   0  0  0  0  0  0  0  0  0  0  0  0
   21.9305   19.1683   19.4213 H   0  0  0  0  0  0  0  0  0  0  0  0
  1  2  1  0  0  0  0
  1  3  2  0  0  0  0
  1  4  1  0  0  0  0
  4  5  1  0  0  0  0
  4  6  1  0  0  0  0
  4  7  1  0  0  0  0
  7  8  1  0  0  0  0
  7  9  1  0  0  0  0
  7 10  1  0  0  0  0
 10 11  1  0  0  0  0
 10 12  1  0  0  0  0
 10 13  1  0  0  0  0
 13 14  1  0  0  0  0
 13 15  1  0  0  0  0
 13 16  1  0  0  0  0
 16 17  1  0  0  0  0
 16 18  1  0  0  0  0
 16 19  1  0  0  0  0
 19 20  1  0  0  0  0
 19 21  1  0  0  0  0
 19 22  1  0  0  0  0
M  END
> <VConfSearch Rank>
125

> <Conf_Id>
60

> <Delta U+W>
0.386

> <U+W>
-52.773

> <U>
7.689

> <W>
-60.463

> <W(PB)>
-62.772

> <W(SA)>
2.309

> <Valence>
8.197

> <Coulomb>
-1.561

> <VdW>
1.053

> <VdW6>
-7.737

> <VdW12>
8.790

> <Bond>
0.181

> <Angle>
2.780

> <Pdih>
5.235

> <Idih>
0.001

> <Tether>
0.000

$$$$
VeraChem MOL file


 22 21  0  0  0  0  0  0  0  0999 V2000     
   16.8648   19.3734   19.9703 C   0  0  0  0  0  0  0  0  0  0  0  0
   16.3387   20.4487   20.1791 O   0  5  0  0  0  0  0  0  0  0  0  0
   16.3124   18.4537   19.3998 O   0  0  0  0  0  0  0  0  0  0  0  0
   18.2884   19.1586   20.4718 C   0  0  0  0  0  0  0  0  0  0  0  0
   18.8120   20.1189   20.4074 H   0  0  0  0  0  0  0  0  0  0  0  0
   18.7902   18.4670   19.7845 H   0  0  0  0  0  0  0  0  0  0  0  0
   18.3368   18.6035   21.9192 C   0  0  0  0  0  0  0  0  0  0  0  0
   17.8752   19.3265   22.6059 H   0  0  0  0  0  0  0  0  0  0  0  0
   17.7215   17.6944   21.9671 H   0  0  0  0  0  0  0  0  0  0  0  0
   19.7652   18.2591   22.4049 C   0  0  0  0  0  0  0  0  0  0  0  0
   20.2268   17.5426   21.7119 H   0  0  0  0  0  0  0  0  0  0  0  0
   19.6806   17.7469   23.3717 H   0  0  0  0  0  0  0  0  0  0  0  0
   20.6787   19.5001   22.5588 C   0  0  0  0  0  0  0  0  0  0  0  0
   20.7667   20.0115   21.5919 H   0  0  0  0  0  0  0  0  0  0  0  0
   20.2161   20.2174   23.2503 H   0  0  0  0  0  0  0  0  0  0  0  0
   22.1048   19.1559   23.0485 C   0  0  0  0  0  0  0  0  0  0  0  0
   22.7218   20.0637   22.9990 H   0  0  0  0  0  0  0  0  0  0  0  0
   22.5667   18.4297   22.3655 H   0  0  0  0  0  0  0  0  0  0  0  0
   22.1434   18.6100   24.4925 C   0  0  0  0  0  0  0  0  0  0  0  0
   21.6556   19.3048   25.1885 H   0  0  0  0  0  0  0  0  0  0  0  0
   23.1812   18.4740   24.8232 H   0  0  0  0  0  0  0  0  0  0  0  0
   21.6417   17.6374   24.5680 H   0  0  0  0  0  0  0  0  0  0  0  0
  1  2  1  0  0  0  0
  1  3  2  0  0  0  0
  1  4  1  0  0  0  0
  4  5  1  0  0  0  0
  4  6  1  0  0  0  0
  4  7  1  0  0  0  0
  7  8  1  0  0  0  0
  7  9  1  0  0  0  0
  7 10  1  0  0  0  0
 10 11  1  0  0  0  0
 10 12  1  0  0  0  0
 10 13  1  0  0  0  0
 13 14  1  0  0  0  0
 13 15  1  0  0  0  0
 13 16  1  0  0  0  0
 16 17  1  0  0  0  0
 16 18  1  0  0  0  0
 16 19  1  0  0  0  0
 19 20  1  0  0  0  0
 19 21  1  0  0  0  0
 19 22  1  0  0  0  0
M  END
> <VConfSearch Rank>
126

> <Conf_Id>
28

> <Delta U+W>
0.351

> <U+W>
-52.808

> <U>
7.689

> <W>
-60.498

> <W(PB)>
-62.768

> <W(SA)>
2.270

> <Valence>
8.197

> <Coulomb>
-1.561

> <VdW>
1.053

> <VdW6>
-7.737

> <VdW12>
8.791

> <Bond>
0.181

> <Angle>
2.780

> <Pdih>
5.235

> <Idih>
0.001

> <Tether>
0.000

$$$$
VeraChem MOL file


 22 21  0  0  0  0  0  0  0  0999 V2000     
   17.6080   17.0988   24.5966 C   0  0  0  0  0  0  0  0  0  0  0  0
   17.3483   15.9419   24.3311 O   0  5  0  0  0  0  0  0  0  0  0  0
   17.8437   17.4947   25.7210 O   0  0  0  0  0  0  0  0  0  0  0  0
   17.6604   18.1057   23.4530 C   0  0  0  0  0  0  0  0  0  0  0  0
   17.3382   19.0794   23.8412 H   0  0  0  0  0  0  0  0  0  0  0  0
   16.9281   17.7997   22.6962 H   0  0  0  0  0  0  0  0  0  0  0  0
   19.0684   18.2230   22.8189 C   0  0  0  0  0  0  0  0  0  0  0  0
   19.7857   18.5101   23.5989 H   0  0  0  0  0  0  0  0  0  0  0  0
   19.3801   17.2386   22.4432 H   0  0  0  0  0  0  0  0  0  0  0  0
   19.0938   19.2533   21.6661 C   0  0  0  0  0  0  0  0  0  0  0  0
   18.8333   20.2483   22.0522 H   0  0  0  0  0  0  0  0  0  0  0  0
   18.3169   18.9903   20.9352 H   0  0  0  0  0  0  0  0  0  0  0  0
   20.4537   19.3228   20.9316 C   0  0  0  0  0  0  0  0  0  0  0  0
   20.7127   18.3289   20.5418 H   0  0  0  0  0  0  0  0  0  0  0  0
   20.3441   19.9800   20.0580 H   0  0  0  0  0  0  0  0  0  0  0  0
   21.6056   19.8521   21.8155 C   0  0  0  0  0  0  0  0  0  0  0  0
   21.7846   19.1668   22.6543 H   0  0  0  0  0  0  0  0  0  0  0  0
   21.3251   20.8224   22.2480 H   0  0  0  0  0  0  0  0  0  0  0  0
   22.9106   20.0089   21.0093 C   0  0  0  0  0  0  0  0  0  0  0  0
   22.7792   20.7192   20.1825 H   0  0  0  0  0  0  0  0  0  0  0  0
   23.2293   19.0467   20.5875 H   0  0  0  0  0  0  0  0  0  0  0  0
   23.7192   20.3822   21.6511 H   0  0  0  0  0  0  0  0  0  0  0  0
  1  2  1  0  0  0  0
  1  3  2  0  0  0  0
  1  4  1  0  0  0  0
  4  5  1  0  0  0  0
  4  6  1  0  0  0  0
  4  7  1  0  0  0  0
  7  8  1  0  0  0  0
  7  9  1  0  0  0  0
  7 10  1  0  0  0  0
 10 11  1  0  0  0  0
 10 12  1  0  0  0  0
 10 13  1  0  0  0  0
 13 14  1  0  0  0  0
 13 15  1  0  0  0  0
 13 16  1  0  0  0  0
 16 17  1  0  0  0  0
 16 18  1  0  0  0  0
 16 19  1  0  0  0  0
 19 20  1  0  0  0  0
 19 21  1  0  0  0  0
 19 22  1  0  0  0  0
M  END
> <VConfSearch Rank>
127

> <Conf_Id>
50

> <Delta U+W>
-0.486

> <U+W>
-53.646

> <U>
7.026

> <W>
-60.672

> <W(PB)>
-62.964

> <W(SA)>
2.292

> <Valence>
7.637

> <Coulomb>
-1.488

> <VdW>
0.877

> <VdW6>
-7.165

> <VdW12>
8.043

> <Bond>
0.134

> <Angle>
2.513

> <Pdih>
4.990

> <Idih>
0.001

> <Tether>
0.000

$$$$
VeraChem MOL file


 22 21  0  0  0  0  0  0  0  0999 V2000     
   17.2668   21.5685   23.4144 C   0  0  0  0  0  0  0  0  0  0  0  0
   17.5857   22.2515   24.3675 O   0  5  0  0  0  0  0  0  0  0  0  0
   16.1574   21.0954   23.2667 O   0  0  0  0  0  0  0  0  0  0  0  0
   18.3230   21.2718   22.3557 C   0  0  0  0  0  0  0  0  0  0  0  0
   18.9944   22.1366   22.2929 H   0  0  0  0  0  0  0  0  0  0  0  0
   17.8180   21.1821   21.3864 H   0  0  0  0  0  0  0  0  0  0  0  0
   19.1324   19.9864   22.6571 C   0  0  0  0  0  0  0  0  0  0  0  0
   19.6242   20.0883   23.6343 H   0  0  0  0  0  0  0  0  0  0  0  0
   18.4374   19.1400   22.7349 H   0  0  0  0  0  0  0  0  0  0  0  0
   20.1921   19.7074   21.5661 C   0  0  0  0  0  0  0  0  0  0  0  0
   20.8285   20.5955   21.4514 H   0  0  0  0  0  0  0  0  0  0  0  0
   19.6961   19.5532   20.5981 H   0  0  0  0  0  0  0  0  0  0  0  0
   21.0978   18.4937   21.8828 C   0  0  0  0  0  0  0  0  0  0  0  0
   21.8932   18.4464   21.1265 H   0  0  0  0  0  0  0  0  0  0  0  0
   21.5971   18.6492   22.8490 H   0  0  0  0  0  0  0  0  0  0  0  0
   20.3405   17.1467   21.8987 C   0  0  0  0  0  0  0  0  0  0  0  0
   19.7979   17.0153   20.9523 H   0  0  0  0  0  0  0  0  0  0  0  0
   19.5912   17.1431   22.7011 H   0  0  0  0  0  0  0  0  0  0  0  0
   21.3026   15.9597   22.1063 C   0  0  0  0  0  0  0  0  0  0  0  0
   21.8391   16.0516   23.0597 H   0  0  0  0  0  0  0  0  0  0  0  0
   22.0445   15.9089   21.2986 H   0  0  0  0  0  0  0  0  0  0  0  0
   20.7498   15.0114   22.1184 H   0  0  0  0  0  0  0  0  0  0  0  0
  1  2  1  0  0  0  0
  1  3  2  0  0  0  0
  1  4  1  0  0  0  0
  4  5  1  0  0  0  0
  4  6  1  0  0  0  0
  4  7  1  0  0  0  0
  7  8  1  0  0  0  0
  7  9  1  0  0  0  0
  7 10  1  0  0  0  0
 10 11  1  0  0  0  0
 10 12  1  0  0  0  0
 10 13  1  0  0  0  0
 13 14  1  0  0  0  0
 13 15  1  0  0  0  0
 13 16  1  0  0  0  0
 16 17  1  0  0  0  0
 16 18  1  0  0  0  0
 16 19  1  0  0  0  0
 19 20  1  0  0  0  0
 19 21  1  0  0  0  0
 19 22  1  0  0  0  0
M  END
> <VConfSearch Rank>
128

> <Conf_Id>
51

> <Delta U+W>
-0.517

> <U+W>
-53.677

> <U>
7.026

> <W>
-60.703

> <W(PB)>
-63.007

> <W(SA)>
2.304

> <Valence>
7.638

> <Coulomb>
-1.488

> <VdW>
0.877

> <VdW6>
-7.165

> <VdW12>
8.042

> <Bond>
0.134

> <Angle>
2.513

> <Pdih>
4.990

> <Idih>
0.001

> <Tether>
0.000

$$$$
VeraChem MOL file


 22 21  0  0  0  0  0  0  0  0999 V2000     
   16.9127   18.5409   23.9509 C   0  0  0  0  0  0  0  0  0  0  0  0
   16.0827   19.3382   23.5606 O   0  5  0  0  0  0  0  0  0  0  0  0
   16.7874   17.3363   23.8504 O   0  0  0  0  0  0  0  0  0  0  0  0
   18.1720   19.0839   24.6205 C   0  0  0  0  0  0  0  0  0  0  0  0
   18.6323   18.2787   25.2060 H   0  0  0  0  0  0  0  0  0  0  0  0
   17.8577   19.8550   25.3336 H   0  0  0  0  0  0  0  0  0  0  0  0
   19.2043   19.6836   23.6307 C   0  0  0  0  0  0  0  0  0  0  0  0
   18.7212   20.4687   23.0324 H   0  0  0  0  0  0  0  0  0  0  0  0
   20.0057   20.1702   24.2029 H   0  0  0  0  0  0  0  0  0  0  0  0
   19.8201   18.6180   22.6963 C   0  0  0  0  0  0  0  0  0  0  0  0
   19.0259   18.1384   22.1077 H   0  0  0  0  0  0  0  0  0  0  0  0
   20.2902   17.8290   23.2992 H   0  0  0  0  0  0  0  0  0  0  0  0
   20.8670   19.2312   21.7416 C   0  0  0  0  0  0  0  0  0  0  0  0
   20.3962   20.0201   21.1390 H   0  0  0  0  0  0  0  0  0  0  0  0
   21.6639   19.7090   22.3279 H   0  0  0  0  0  0  0  0  0  0  0  0
   21.4819   18.1678   20.8077 C   0  0  0  0  0  0  0  0  0  0  0  0
   20.6878   17.6889   20.2182 H   0  0  0  0  0  0  0  0  0  0  0  0
   21.9553   17.3777   21.4069 H   0  0  0  0  0  0  0  0  0  0  0  0
   22.5263   18.7839   19.8553 C   0  0  0  0  0  0  0  0  0  0  0  0
   22.0721   19.5565   19.2211 H   0  0  0  0  0  0  0  0  0  0  0  0
   22.9529   18.0143   19.1990 H   0  0  0  0  0  0  0  0  0  0  0  0
   23.3492   19.2430   20.4188 H   0  0  0  0  0  0  0  0  0  0  0  0
  1  2  1  0  0  0  0
  1  3  2  0  0  0  0
  1  4  1  0  0  0  0
  4  5  1  0  0  0  0
  4  6  1  0  0  0  0
  4  7  1  0  0  0  0
  7  8  1  0  0  0  0
  7  9  1  0  0  0  0
  7 10  1  0  0  0  0
 10 11  1  0  0  0  0
 10 12  1  0  0  0  0
 10 13  1  0  0  0  0
 13 14  1  0  0  0  0
 13 15  1  0  0  0  0
 13 16  1  0  0  0  0
 16 17  1  0  0  0  0
 16 18  1  0  0  0  0
 16 19  1  0  0  0  0
 19 20  1  0  0  0  0
 19 21  1  0  0  0  0
 19 22  1  0  0  0  0
M  END
> <VConfSearch Rank>
129

> <Conf_Id>
43

> <Delta U+W>
-0.129

> <U+W>
-53.289

> <U>
7.937

> <W>
-61.225

> <W(PB)>
-63.523

> <W(SA)>
2.297

> <Valence>
7.358

> <Coulomb>
-0.022

> <VdW>
0.601

> <VdW6>
-7.363

> <VdW12>
7.964

> <Bond>
0.121

> <Angle>
2.425

> <Pdih>
4.811

> <Idih>
0.000

> <Tether>
0.000

$$$$
VeraChem MOL file


 22 21  0  0  0  0  0  0  0  0999 V2000     
   16.5081   20.3701   22.7698 C   0  0  0  0  0  0  0  0  0  0  0  0
   16.3916   21.5022   22.3435 O   0  5  0  0  0  0  0  0  0  0  0  0
   16.3473   20.0712   23.9367 O   0  0  0  0  0  0  0  0  0  0  0  0
   16.8574   19.2617   21.7805 C   0  0  0  0  0  0  0  0  0  0  0  0
   16.2152   19.3923   20.9016 H   0  0  0  0  0  0  0  0  0  0  0  0
   16.5910   18.2964   22.2278 H   0  0  0  0  0  0  0  0  0  0  0  0
   18.3441   19.2554   21.3394 C   0  0  0  0  0  0  0  0  0  0  0  0
   18.4732   18.5223   20.5317 H   0  0  0  0  0  0  0  0  0  0  0  0
   18.6033   20.2374   20.9196 H   0  0  0  0  0  0  0  0  0  0  0  0
   19.3064   18.9112   22.4984 C   0  0  0  0  0  0  0  0  0  0  0  0
   19.0349   17.9349   22.9230 H   0  0  0  0  0  0  0  0  0  0  0  0
   19.1954   19.6505   23.3036 H   0  0  0  0  0  0  0  0  0  0  0  0
   20.7772   18.8797   22.0301 C   0  0  0  0  0  0  0  0  0  0  0  0
   20.8913   18.1390   21.2267 H   0  0  0  0  0  0  0  0  0  0  0  0
   21.0479   19.8563   21.6057 H   0  0  0  0  0  0  0  0  0  0  0  0
   21.7388   18.5367   23.1871 C   0  0  0  0  0  0  0  0  0  0  0  0
   21.4721   17.5595   23.6132 H   0  0  0  0  0  0  0  0  0  0  0  0
   21.6287   19.2767   23.9920 H   0  0  0  0  0  0  0  0  0  0  0  0
   23.2066   18.5068   22.7159 C   0  0  0  0  0  0  0  0  0  0  0  0
   23.3521   17.7522   21.9318 H   0  0  0  0  0  0  0  0  0  0  0  0
   23.8760   18.2616   23.5507 H   0  0  0  0  0  0  0  0  0  0  0  0
   23.5099   19.4823   22.3135 H   0  0  0  0  0  0  0  0  0  0  0  0
  1  2  1  0  0  0  0
  1  3  2  0  0  0  0
  1  4  1  0  0  0  0
  4  5  1  0  0  0  0
  4  6  1  0  0  0  0
  4  7  1  0  0  0  0
  7  8  1  0  0  0  0
  7  9  1  0  0  0  0
  7 10  1  0  0  0  0
 10 11  1  0  0  0  0
 10 12  1  0  0  0  0
 10 13  1  0  0  0  0
 13 14  1  0  0  0  0
 13 15  1  0  0  0  0
 13 16  1  0  0  0  0
 16 17  1  0  0  0  0
 16 18  1  0  0  0  0
 16 19  1  0  0  0  0
 19 20  1  0  0  0  0
 19 21  1  0  0  0  0
 19 22  1  0  0  0  0
M  END
> <VConfSearch Rank>
130

> <Conf_Id>
44

> <Delta U+W>
-0.155

> <U+W>
-53.314

> <U>
7.937

> <W>
-61.252

> <W(PB)>
-63.556

> <W(SA)>
2.304

> <Valence>
7.358

> <Coulomb>
-0.021

> <VdW>
0.600

> <VdW6>
-7.363

> <VdW12>
7.964

> <Bond>
0.121

> <Angle>
2.425

> <Pdih>
4.811

> <Idih>
0.001

> <Tether>
0.000

$$$$
VeraChem MOL file


 22 21  0  0  0  0  0  0  0  0999 V2000     
   20.8292   17.5387   25.3276 C   0  0  0  0  0  0  0  0  0  0  0  0
   21.5006   18.3087   25.9858 O   0  5  0  0  0  0  0  0  0  0  0  0
   21.1692   16.4005   25.0712 O   0  0  0  0  0  0  0  0  0  0  0  0
   19.4770   18.0234   24.8120 C   0  0  0  0  0  0  0  0  0  0  0  0
   18.9712   18.5271   25.6442 H   0  0  0  0  0  0  0  0  0  0  0  0
   18.8671   17.1497   24.5521 H   0  0  0  0  0  0  0  0  0  0  0  0
   19.5706   18.9898   23.6024 C   0  0  0  0  0  0  0  0  0  0  0  0
   18.5715   19.3997   23.4073 H   0  0  0  0  0  0  0  0  0  0  0  0
   20.2168   19.8390   23.8644 H   0  0  0  0  0  0  0  0  0  0  0  0
   20.1074   18.2954   22.3278 C   0  0  0  0  0  0  0  0  0  0  0  0
   19.4369   17.4731   22.0432 H   0  0  0  0  0  0  0  0  0  0  0  0
   21.0810   17.8374   22.5498 H   0  0  0  0  0  0  0  0  0  0  0  0
   20.2853   19.2579   21.1295 C   0  0  0  0  0  0  0  0  0  0  0  0
   20.9557   20.0802   21.4146 H   0  0  0  0  0  0  0  0  0  0  0  0
   20.7889   18.7139   20.3188 H   0  0  0  0  0  0  0  0  0  0  0  0
   18.9537   19.8322   20.5953 C   0  0  0  0  0  0  0  0  0  0  0  0
   18.4708   20.4481   21.3651 H   0  0  0  0  0  0  0  0  0  0  0  0
   18.2629   19.0104   20.3615 H   0  0  0  0  0  0  0  0  0  0  0  0
   19.1742   20.6902   19.3332 C   0  0  0  0  0  0  0  0  0  0  0  0
   19.8408   21.5364   19.5455 H   0  0  0  0  0  0  0  0  0  0  0  0
   18.2206   21.0933   18.9681 H   0  0  0  0  0  0  0  0  0  0  0  0
   19.6215   20.0952   18.5262 H   0  0  0  0  0  0  0  0  0  0  0  0
  1  2  1  0  0  0  0
  1  3  2  0  0  0  0
  1  4  1  0  0  0  0
  4  5  1  0  0  0  0
  4  6  1  0  0  0  0
  4  7  1  0  0  0  0
  7  8  1  0  0  0  0
  7  9  1  0  0  0  0
  7 10  1  0  0  0  0
 10 11  1  0  0  0  0
 10 12  1  0  0  0  0
 10 13  1  0  0  0  0
 13 14  1  0  0  0  0
 13 15  1  0  0  0  0
 13 16  1  0  0  0  0
 16 17  1  0  0  0  0
 16 18  1  0  0  0  0
 16 19  1  0  0  0  0
 19 20  1  0  0  0  0
 19 21  1  0  0  0  0
 19 22  1  0  0  0  0
M  END
> <VConfSearch Rank>
131

> <Conf_Id>
53

> <Delta U+W>
0.723

> <U+W>
-52.436

> <U>
8.587

> <W>
-61.022

> <W(PB)>
-63.285

> <W(SA)>
2.263

> <Valence>
7.933

> <Coulomb>
-0.124

> <VdW>
0.778

> <VdW6>
-7.981

> <VdW12>
8.759

> <Bond>
0.160

> <Angle>
2.698

> <Pdih>
5.074

> <Idih>
0.001

> <Tether>
0.000

$$$$
VeraChem MOL file


 22 21  0  0  0  0  0  0  0  0999 V2000     
   19.5009   21.9158   20.7537 C   0  0  0  0  0  0  0  0  0  0  0  0
   19.7527   21.7500   19.5766 O   0  5  0  0  0  0  0  0  0  0  0  0
   19.1386   22.9774   21.2210 O   0  0  0  0  0  0  0  0  0  0  0  0
   19.6247   20.7210   21.6924 C   0  0  0  0  0  0  0  0  0  0  0  0
   19.9081   21.0941   22.6838 H   0  0  0  0  0  0  0  0  0  0  0  0
   20.4473   20.0963   21.3265 H   0  0  0  0  0  0  0  0  0  0  0  0
   18.3188   19.8921   21.7844 C   0  0  0  0  0  0  0  0  0  0  0  0
   17.4870   20.5707   22.0191 H   0  0  0  0  0  0  0  0  0  0  0  0
   18.0946   19.4607   20.7990 H   0  0  0  0  0  0  0  0  0  0  0  0
   18.3501   18.7667   22.8489 C   0  0  0  0  0  0  0  0  0  0  0  0
   17.3616   18.2874   22.8522 H   0  0  0  0  0  0  0  0  0  0  0  0
   18.4752   19.1987   23.8513 H   0  0  0  0  0  0  0  0  0  0  0  0
   19.4168   17.6707   22.5988 C   0  0  0  0  0  0  0  0  0  0  0  0
   18.9988   16.7020   22.9050 H   0  0  0  0  0  0  0  0  0  0  0  0
   19.6268   17.5866   21.5237 H   0  0  0  0  0  0  0  0  0  0  0  0
   20.7271   17.8992   23.3874 C   0  0  0  0  0  0  0  0  0  0  0  0
   20.5085   17.9235   24.4639 H   0  0  0  0  0  0  0  0  0  0  0  0
   21.1657   18.8718   23.1344 H   0  0  0  0  0  0  0  0  0  0  0  0
   21.7588   16.7893   23.1030 C   0  0  0  0  0  0  0  0  0  0  0  0
   21.3643   15.8042   23.3845 H   0  0  0  0  0  0  0  0  0  0  0  0
   22.6799   16.9616   23.6749 H   0  0  0  0  0  0  0  0  0  0  0  0
   22.0216   16.7619   22.0374 H   0  0  0  0  0  0  0  0  0  0  0  0
  1  2  1  0  0  0  0
  1  3  2  0  0  0  0
  1  4  1  0  0  0  0
  4  5  1  0  0  0  0
  4  6  1  0  0  0  0
  4  7  1  0  0  0  0
  7  8  1  0  0  0  0
  7  9  1  0  0  0  0
  7 10  1  0  0  0  0
 10 11  1  0  0  0  0
 10 12  1  0  0  0  0
 10 13  1  0  0  0  0
 13 14  1  0  0  0  0
 13 15  1  0  0  0  0
 13 16  1  0  0  0  0
 16 17  1  0  0  0  0
 16 18  1  0  0  0  0
 16 19  1  0  0  0  0
 19 20  1  0  0  0  0
 19 21  1  0  0  0  0
 19 22  1  0  0  0  0
M  END
> <VConfSearch Rank>
132

> <Conf_Id>
5

> <Delta U+W>
2.167

> <U+W>
-50.993

> <U>
10.045

> <W>
-61.037

> <W(PB)>
-63.303

> <W(SA)>
2.266

> <Valence>
10.100

> <Coulomb>
-0.883

> <VdW>
0.828

> <VdW6>
-8.177

> <VdW12>
9.005

> <Bond>
0.182

> <Angle>
2.988

> <Pdih>
6.930

> <Idih>
0.001

> <Tether>
0.000

$$$$
VeraChem MOL file


 22 21  0  0  0  0  0  0  0  0999 V2000     
   21.3148   17.2039   19.8560 C   0  0  0  0  0  0  0  0  0  0  0  0
   22.0804   16.3854   20.3255 O   0  5  0  0  0  0  0  0  0  0  0  0
   21.1845   17.3964   18.6633 O   0  0  0  0  0  0  0  0  0  0  0  0
   20.4888   18.0520   20.8165 C   0  0  0  0  0  0  0  0  0  0  0  0
   20.2590   17.4330   21.6910 H   0  0  0  0  0  0  0  0  0  0  0  0
   19.5394   18.2965   20.3254 H   0  0  0  0  0  0  0  0  0  0  0  0
   21.2175   19.3486   21.2510 C   0  0  0  0  0  0  0  0  0  0  0  0
   22.1249   19.0828   21.8107 H   0  0  0  0  0  0  0  0  0  0  0  0
   21.5565   19.8802   20.3510 H   0  0  0  0  0  0  0  0  0  0  0  0
   20.3509   20.3160   22.0958 C   0  0  0  0  0  0  0  0  0  0  0  0
   19.4917   20.6651   21.5069 H   0  0  0  0  0  0  0  0  0  0  0  0
   20.9561   21.2101   22.2989 H   0  0  0  0  0  0  0  0  0  0  0  0
   19.8737   19.7381   23.4523 C   0  0  0  0  0  0  0  0  0  0  0  0
   20.5860   18.9833   23.8125 H   0  0  0  0  0  0  0  0  0  0  0  0
   19.8822   20.5459   24.1969 H   0  0  0  0  0  0  0  0  0  0  0  0
   18.4451   19.1490   23.3992 C   0  0  0  0  0  0  0  0  0  0  0  0
   18.3821   18.3557   22.6449 H   0  0  0  0  0  0  0  0  0  0  0  0
   17.7365   19.9308   23.0929 H   0  0  0  0  0  0  0  0  0  0  0  0
   18.0164   18.5817   24.7673 C   0  0  0  0  0  0  0  0  0  0  0  0
   18.6890   17.7743   25.0852 H   0  0  0  0  0  0  0  0  0  0  0  0
   16.9985   18.1741   24.7152 H   0  0  0  0  0  0  0  0  0  0  0  0
   18.0297   19.3630   25.5385 H   0  0  0  0  0  0  0  0  0  0  0  0
  1  2  1  0  0  0  0
  1  3  2  0  0  0  0
  1  4  1  0  0  0  0
  4  5  1  0  0  0  0
  4  6  1  0  0  0  0
  4  7  1  0  0  0  0
  7  8  1  0  0  0  0
  7  9  1  0  0  0  0
  7 10  1  0  0  0  0
 10 11  1  0  0  0  0
 10 12  1  0  0  0  0
 10 13  1  0  0  0  0
 13 14  1  0  0  0  0
 13 15  1  0  0  0  0
 13 16  1  0  0  0  0
 16 17  1  0  0  0  0
 16 18  1  0  0  0  0
 16 19  1  0  0  0  0
 19 20  1  0  0  0  0
 19 21  1  0  0  0  0
 19 22  1  0  0  0  0
M  END
> <VConfSearch Rank>
133

> <Conf_Id>
6

> <Delta U+W>
2.118

> <U+W>
-51.042

> <U>
10.045

> <W>
-61.086

> <W(PB)>
-63.356

> <W(SA)>
2.270

> <Valence>
10.100

> <Coulomb>
-0.883

> <VdW>
0.828

> <VdW6>
-8.177

> <VdW12>
9.004

> <Bond>
0.182

> <Angle>
2.988

> <Pdih>
6.930

> <Idih>
0.001

> <Tether>
0.000

$$$$
VeraChem MOL file


 22 21  0  0  0  0  0  0  0  0999 V2000     
   20.9760   20.5113   24.3919 C   0  0  0  0  0  0  0  0  0  0  0  0
   22.0116   20.8498   23.8530 O   0  5  0  0  0  0  0  0  0  0  0  0
   20.9272   19.7196   25.3127 O   0  0  0  0  0  0  0  0  0  0  0  0
   19.6736   21.1671   23.9366 C   0  0  0  0  0  0  0  0  0  0  0  0
   19.7725   22.2358   24.1595 H   0  0  0  0  0  0  0  0  0  0  0  0
   18.8500   20.7924   24.5563 H   0  0  0  0  0  0  0  0  0  0  0  0
   19.3350   20.9944   22.4291 C   0  0  0  0  0  0  0  0  0  0  0  0
   18.6205   21.7806   22.1501 H   0  0  0  0  0  0  0  0  0  0  0  0
   20.2326   21.1724   21.8207 H   0  0  0  0  0  0  0  0  0  0  0  0
   18.7033   19.6300   22.0575 C   0  0  0  0  0  0  0  0  0  0  0  0
   18.3675   19.6820   21.0127 H   0  0  0  0  0  0  0  0  0  0  0  0
   17.8023   19.4625   22.6632 H   0  0  0  0  0  0  0  0  0  0  0  0
   19.6631   18.4284   22.2109 C   0  0  0  0  0  0  0  0  0  0  0  0
   20.6062   18.6404   21.6888 H   0  0  0  0  0  0  0  0  0  0  0  0
   19.9084   18.2797   23.2700 H   0  0  0  0  0  0  0  0  0  0  0  0
   19.0442   17.1291   21.6534 C   0  0  0  0  0  0  0  0  0  0  0  0
   18.8011   17.2600   20.5899 H   0  0  0  0  0  0  0  0  0  0  0  0
   18.0998   16.9167   22.1735 H   0  0  0  0  0  0  0  0  0  0  0  0
   19.9996   15.9299   21.8158 C   0  0  0  0  0  0  0  0  0  0  0  0
   20.9414   16.1029   21.2787 H   0  0  0  0  0  0  0  0  0  0  0  0
   19.5440   15.0148   21.4157 H   0  0  0  0  0  0  0  0  0  0  0  0
   20.2356   15.7567   22.8740 H   0  0  0  0  0  0  0  0  0  0  0  0
  1  2  1  0  0  0  0
  1  3  2  0  0  0  0
  1  4  1  0  0  0  0
  4  5  1  0  0  0  0
  4  6  1  0  0  0  0
  4  7  1  0  0  0  0
  7  8  1  0  0  0  0
  7  9  1  0  0  0  0
  7 10  1  0  0  0  0
 10 11  1  0  0  0  0
 10 12  1  0  0  0  0
 10 13  1  0  0  0  0
 13 14  1  0  0  0  0
 13 15  1  0  0  0  0
 13 16  1  0  0  0  0
 16 17  1  0  0  0  0
 16 18  1  0  0  0  0
 16 19  1  0  0  0  0
 19 20  1  0  0  0  0
 19 21  1  0  0  0  0
 19 22  1  0  0  0  0
M  END
> <VConfSearch Rank>
134

> <Conf_Id>
8

> <Delta U+W>
1.886

> <U+W>
-51.274

> <U>
11.237

> <W>
-62.510

> <W(PB)>
-64.777

> <W(SA)>
2.267

> <Valence>
9.029

> <Coulomb>
1.667

> <VdW>
0.540

> <VdW6>
-8.825

> <VdW12>
9.365

> <Bond>
0.186

> <Angle>
3.195

> <Pdih>
5.642

> <Idih>
0.007

> <Tether>
0.000

$$$$
VeraChem MOL file


 22 21  0  0  0  0  0  0  0  0999 V2000     
   19.1156   16.7729   24.5767 C   0  0  0  0  0  0  0  0  0  0  0  0
   20.2478   16.3541   24.4369 O   0  5  0  0  0  0  0  0  0  0  0  0
   18.1334   16.0575   24.6075 O   0  0  0  0  0  0  0  0  0  0  0  0
   18.9163   18.2756   24.7535 C   0  0  0  0  0  0  0  0  0  0  0  0
   19.8850   18.7342   24.9816 H   0  0  0  0  0  0  0  0  0  0  0  0
   18.2902   18.4184   25.6419 H   0  0  0  0  0  0  0  0  0  0  0  0
   18.2486   18.9757   23.5380 C   0  0  0  0  0  0  0  0  0  0  0  0
   17.2492   18.5438   23.3903 H   0  0  0  0  0  0  0  0  0  0  0  0
   18.0927   20.0369   23.7742 H   0  0  0  0  0  0  0  0  0  0  0  0
   19.0404   18.8596   22.2120 C   0  0  0  0  0  0  0  0  0  0  0  0
   18.4316   19.3038   21.4145 H   0  0  0  0  0  0  0  0  0  0  0  0
   19.1706   17.8009   21.9490 H   0  0  0  0  0  0  0  0  0  0  0  0
   20.4220   19.5573   22.2560 C   0  0  0  0  0  0  0  0  0  0  0  0
   20.2978   20.6117   22.5379 H   0  0  0  0  0  0  0  0  0  0  0  0
   21.0372   19.0936   23.0379 H   0  0  0  0  0  0  0  0  0  0  0  0
   21.1990   19.4658   20.9219 C   0  0  0  0  0  0  0  0  0  0  0  0
   21.3111   18.4124   20.6298 H   0  0  0  0  0  0  0  0  0  0  0  0
   22.2150   19.8531   21.0802 H   0  0  0  0  0  0  0  0  0  0  0  0
   20.5412   20.2587   19.7716 C   0  0  0  0  0  0  0  0  0  0  0  0
   19.5702   19.8314   19.4926 H   0  0  0  0  0  0  0  0  0  0  0  0
   21.1799   20.2402   18.8791 H   0  0  0  0  0  0  0  0  0  0  0  0
   20.3877   21.3081   20.0552 H   0  0  0  0  0  0  0  0  0  0  0  0
  1  2  1  0  0  0  0
  1  3  2  0  0  0  0
  1  4  1  0  0  0  0
  4  5  1  0  0  0  0
  4  6  1  0  0  0  0
  4  7  1  0  0  0  0
  7  8  1  0  0  0  0
  7  9  1  0  0  0  0
  7 10  1  0  0  0  0
 10 11  1  0  0  0  0
 10 12  1  0  0  0  0
 10 13  1  0  0  0  0
 13 14  1  0  0  0  0
 13 15  1  0  0  0  0
 13 16  1  0  0  0  0
 16 17  1  0  0  0  0
 16 18  1  0  0  0  0
 16 19  1  0  0  0  0
 19 20  1  0  0  0  0
 19 21  1  0  0  0  0
 19 22  1  0  0  0  0
M  END
> <VConfSearch Rank>
135

> <Conf_Id>
93

> <Delta U+W>
1.836

> <U+W>
-51.323

> <U>
10.427

> <W>
-61.751

> <W(PB)>
-63.980

> <W(SA)>
2.230

> <Valence>
8.446

> <Coulomb>
1.306

> <VdW>
0.676

> <VdW6>
-8.928

> <VdW12>
9.604

> <Bond>
0.209

> <Angle>
3.066

> <Pdih>
5.170

> <Idih>
0.001

> <Tether>
0.000

$$$$
VeraChem MOL file


 22 21  0  0  0  0  0  0  0  0999 V2000     
   20.3179   20.4520   25.1684 C   0  0  0  0  0  0  0  0  0  0  0  0
   20.6179   19.8639   26.1889 O   0  5  0  0  0  0  0  0  0  0  0  0
   19.3131   21.1255   25.0515 O   0  0  0  0  0  0  0  0  0  0  0  0
   21.2717   20.3628   23.9803 C   0  0  0  0  0  0  0  0  0  0  0  0
   22.2759   20.5995   24.3508 H   0  0  0  0  0  0  0  0  0  0  0  0
   21.0139   21.1499   23.2628 H   0  0  0  0  0  0  0  0  0  0  0  0
   21.2956   18.9728   23.2872 C   0  0  0  0  0  0  0  0  0  0  0  0
   22.0460   18.9826   22.4853 H   0  0  0  0  0  0  0  0  0  0  0  0
   21.6345   18.2235   24.0160 H   0  0  0  0  0  0  0  0  0  0  0  0
   19.9339   18.5187   22.7054 C   0  0  0  0  0  0  0  0  0  0  0  0
   19.1849   18.4715   23.5076 H   0  0  0  0  0  0  0  0  0  0  0  0
   20.0510   17.4941   22.3307 H   0  0  0  0  0  0  0  0  0  0  0  0
   19.4166   19.4294   21.5650 C   0  0  0  0  0  0  0  0  0  0  0  0
   19.2766   20.4478   21.9499 H   0  0  0  0  0  0  0  0  0  0  0  0
   20.1712   19.4950   20.7695 H   0  0  0  0  0  0  0  0  0  0  0  0
   18.0712   18.9581   20.9652 C   0  0  0  0  0  0  0  0  0  0  0  0
   17.7066   19.7289   20.2723 H   0  0  0  0  0  0  0  0  0  0  0  0
   17.3186   18.8766   21.7616 H   0  0  0  0  0  0  0  0  0  0  0  0
   18.1729   17.6179   20.2048 C   0  0  0  0  0  0  0  0  0  0  0  0
   18.4167   16.7894   20.8812 H   0  0  0  0  0  0  0  0  0  0  0  0
   18.9448   17.6658   19.4256 H   0  0  0  0  0  0  0  0  0  0  0  0
   17.2177   17.3791   19.7195 H   0  0  0  0  0  0  0  0  0  0  0  0
  1  2  1  0  0  0  0
  1  3  2  0  0  0  0
  1  4  1  0  0  0  0
  4  5  1  0  0  0  0
  4  6  1  0  0  0  0
  4  7  1  0  0  0  0
  7  8  1  0  0  0  0
  7  9  1  0  0  0  0
  7 10  1  0  0  0  0
 10 11  1  0  0  0  0
 10 12  1  0  0  0  0
 10 13  1  0  0  0  0
 13 14  1  0  0  0  0
 13 15  1  0  0  0  0
 13 16  1  0  0  0  0
 16 17  1  0  0  0  0
 16 18  1  0  0  0  0
 16 19  1  0  0  0  0
 19 20  1  0  0  0  0
 19 21  1  0  0  0  0
 19 22  1  0  0  0  0
M  END
> <VConfSearch Rank>
136

> <Conf_Id>
70

> <Delta U+W>
1.803

> <U+W>
-51.356

> <U>
10.428

> <W>
-61.784

> <W(PB)>
-64.014

> <W(SA)>
2.230

> <Valence>
8.445

> <Coulomb>
1.306

> <VdW>
0.676

> <VdW6>
-8.929

> <VdW12>
9.605

> <Bond>
0.209

> <Angle>
3.066

> <Pdih>
5.170

> <Idih>
0.001

> <Tether>
0.000

$$$$
VeraChem MOL file


 22 21  0  0  0  0  0  0  0  0999 V2000     
   20.2432   18.6336   19.1263 C   0  0  0  0  0  0  0  0  0  0  0  0
   20.1702   19.7632   18.6839 O   0  5  0  0  0  0  0  0  0  0  0  0
   19.5594   17.7107   18.7295 O   0  0  0  0  0  0  0  0  0  0  0  0
   21.2648   18.3566   20.2256 C   0  0  0  0  0  0  0  0  0  0  0  0
   22.2038   18.8396   19.9306 H   0  0  0  0  0  0  0  0  0  0  0  0
   21.4597   17.2778   20.2588 H   0  0  0  0  0  0  0  0  0  0  0  0
   20.8371   18.8678   21.6259 C   0  0  0  0  0  0  0  0  0  0  0  0
   21.6778   18.7462   22.3222 H   0  0  0  0  0  0  0  0  0  0  0  0
   20.6293   19.9441   21.5632 H   0  0  0  0  0  0  0  0  0  0  0  0
   19.6029   18.1158   22.1789 C   0  0  0  0  0  0  0  0  0  0  0  0
   19.8009   17.0356   22.1505 H   0  0  0  0  0  0  0  0  0  0  0  0
   18.7368   18.2885   21.5252 H   0  0  0  0  0  0  0  0  0  0  0  0
   19.2400   18.5108   23.6300 C   0  0  0  0  0  0  0  0  0  0  0  0
   18.4385   17.8466   23.9812 H   0  0  0  0  0  0  0  0  0  0  0  0
   20.1020   18.3316   24.2872 H   0  0  0  0  0  0  0  0  0  0  0  0
   18.7736   19.9773   23.7704 C   0  0  0  0  0  0  0  0  0  0  0  0
   17.9455   20.1709   23.0746 H   0  0  0  0  0  0  0  0  0  0  0  0
   19.5880   20.6612   23.4976 H   0  0  0  0  0  0  0  0  0  0  0  0
   18.3170   20.2902   25.2097 C   0  0  0  0  0  0  0  0  0  0  0  0
   17.4755   19.6492   25.5035 H   0  0  0  0  0  0  0  0  0  0  0  0
   17.9920   21.3354   25.2937 H   0  0  0  0  0  0  0  0  0  0  0  0
   19.1353   20.1311   25.9242 H   0  0  0  0  0  0  0  0  0  0  0  0
  1  2  1  0  0  0  0
  1  3  2  0  0  0  0
  1  4  1  0  0  0  0
  4  5  1  0  0  0  0
  4  6  1  0  0  0  0
  4  7  1  0  0  0  0
  7  8  1  0  0  0  0
  7  9  1  0  0  0  0
  7 10  1  0  0  0  0
 10 11  1  0  0  0  0
 10 12  1  0  0  0  0
 10 13  1  0  0  0  0
 13 14  1  0  0  0  0
 13 15  1  0  0  0  0
 13 16  1  0  0  0  0
 16 17  1  0  0  0  0
 16 18  1  0  0  0  0
 16 19  1  0  0  0  0
 19 20  1  0  0  0  0
 19 21  1  0  0  0  0
 19 22  1  0  0  0  0
M  END
> <VConfSearch Rank>
137

> <Conf_Id>
85

> <Delta U+W>
0.707

> <U+W>
-52.452

> <U>
8.925

> <W>
-61.378

> <W(PB)>
-63.661

> <W(SA)>
2.283

> <Valence>
7.881

> <Coulomb>
0.349

> <VdW>
0.695

> <VdW6>
-8.049

> <VdW12>
8.743

> <Bond>
0.156

> <Angle>
2.660

> <Pdih>
5.064

> <Idih>
0.001

> <Tether>
0.000

$$$$
VeraChem MOL file


 22 21  0  0  0  0  0  0  0  0999 V2000     
   20.1325   20.2497   19.3521 C   0  0  0  0  0  0  0  0  0  0  0  0
   19.3274   21.1422   19.1729 O   0  5  0  0  0  0  0  0  0  0  0  0
   21.3133   20.3453   19.0809 O   0  0  0  0  0  0  0  0  0  0  0  0
   19.6313   18.9278   19.9275 C   0  0  0  0  0  0  0  0  0  0  0  0
   20.0634   18.1230   19.3212 H   0  0  0  0  0  0  0  0  0  0  0  0
   18.5439   18.8769   19.7942 H   0  0  0  0  0  0  0  0  0  0  0  0
   19.9990   18.7064   21.4179 C   0  0  0  0  0  0  0  0  0  0  0  0
   19.7370   17.6759   21.6889 H   0  0  0  0  0  0  0  0  0  0  0  0
   21.0858   18.8068   21.5447 H   0  0  0  0  0  0  0  0  0  0  0  0
   19.2659   19.6858   22.3636 C   0  0  0  0  0  0  0  0  0  0  0  0
   18.1825   19.5188   22.2931 H   0  0  0  0  0  0  0  0  0  0  0  0
   19.4401   20.7153   22.0223 H   0  0  0  0  0  0  0  0  0  0  0  0
   19.7069   19.5891   23.8458 C   0  0  0  0  0  0  0  0  0  0  0  0
   20.7709   19.8459   23.9395 H   0  0  0  0  0  0  0  0  0  0  0  0
   19.1632   20.3645   24.4027 H   0  0  0  0  0  0  0  0  0  0  0  0
   19.4227   18.2236   24.5200 C   0  0  0  0  0  0  0  0  0  0  0  0
   18.5626   17.7343   24.0425 H   0  0  0  0  0  0  0  0  0  0  0  0
   19.1314   18.4016   25.5644 H   0  0  0  0  0  0  0  0  0  0  0  0
   20.6451   17.2787   24.5204 C   0  0  0  0  0  0  0  0  0  0  0  0
   20.9815   17.0455   23.5038 H   0  0  0  0  0  0  0  0  0  0  0  0
   20.3979   16.3316   25.0171 H   0  0  0  0  0  0  0  0  0  0  0  0
   21.4873   17.7308   25.0601 H   0  0  0  0  0  0  0  0  0  0  0  0
  1  2  1  0  0  0  0
  1  3  2  0  0  0  0
  1  4  1  0  0  0  0
  4  5  1  0  0  0  0
  4  6  1  0  0  0  0
  4  7  1  0  0  0  0
  7  8  1  0  0  0  0
  7  9  1  0  0  0  0
  7 10  1  0  0  0  0
 10 11  1  0  0  0  0
 10 12  1  0  0  0  0
 10 13  1  0  0  0  0
 13 14  1  0  0  0  0
 13 15  1  0  0  0  0
 13 16  1  0  0  0  0
 16 17  1  0  0  0  0
 16 18  1  0  0  0  0
 16 19  1  0  0  0  0
 19 20  1  0  0  0  0
 19 21  1  0  0  0  0
 19 22  1  0  0  0  0
M  END
> <VConfSearch Rank>
138

> <Conf_Id>
82

> <Delta U+W>
3.438

> <U+W>
-49.721

> <U>
11.773

> <W>
-61.495

> <W(PB)>
-63.749

> <W(SA)>
2.254

> <Valence>
10.419

> <Coulomb>
0.565

> <VdW>
0.789

> <VdW6>
-8.847

> <VdW12>
9.636

> <Bond>
0.200

> <Angle>
3.187

> <Pdih>
7.032

> <Idih>
0.001

> <Tether>
0.000

$$$$
VeraChem MOL file


 22 21  0  0  0  0  0  0  0  0999 V2000     
   18.9979   21.9627   21.4286 C   0  0  0  0  0  0  0  0  0  0  0  0
   18.2046   22.3911   22.2435 O   0  5  0  0  0  0  0  0  0  0  0  0
   19.9248   22.6129   20.9869 O   0  0  0  0  0  0  0  0  0  0  0  0
   18.8043   20.5382   20.9161 C   0  0  0  0  0  0  0  0  0  0  0  0
   19.3558   20.4258   19.9748 H   0  0  0  0  0  0  0  0  0  0  0  0
   17.7410   20.4188   20.6771 H   0  0  0  0  0  0  0  0  0  0  0  0
   19.2341   19.4394   21.9229 C   0  0  0  0  0  0  0  0  0  0  0  0
   18.7094   19.5922   22.8761 H   0  0  0  0  0  0  0  0  0  0  0  0
   18.9126   18.4665   21.5305 H   0  0  0  0  0  0  0  0  0  0  0  0
   20.7618   19.4151   22.1610 C   0  0  0  0  0  0  0  0  0  0  0  0
   21.0984   20.4209   22.4469 H   0  0  0  0  0  0  0  0  0  0  0  0
   21.2740   19.1768   21.2189 H   0  0  0  0  0  0  0  0  0  0  0  0
   21.2186   18.4241   23.2609 C   0  0  0  0  0  0  0  0  0  0  0  0
   22.3051   18.5380   23.3767 H   0  0  0  0  0  0  0  0  0  0  0  0
   20.7843   18.7097   24.2288 H   0  0  0  0  0  0  0  0  0  0  0  0
   20.9204   16.9345   22.9573 C   0  0  0  0  0  0  0  0  0  0  0  0
   21.7517   16.3254   23.3381 H   0  0  0  0  0  0  0  0  0  0  0  0
   20.8902   16.7652   21.8721 H   0  0  0  0  0  0  0  0  0  0  0  0
   19.6176   16.4279   23.6154 C   0  0  0  0  0  0  0  0  0  0  0  0
   19.6688   16.5258   24.7076 H   0  0  0  0  0  0  0  0  0  0  0  0
   19.4562   15.3678   23.3809 H   0  0  0  0  0  0  0  0  0  0  0  0
   18.7405   16.9850   23.2672 H   0  0  0  0  0  0  0  0  0  0  0  0
  1  2  1  0  0  0  0
  1  3  2  0  0  0  0
  1  4  1  0  0  0  0
  4  5  1  0  0  0  0
  4  6  1  0  0  0  0
  4  7  1  0  0  0  0
  7  8  1  0  0  0  0
  7  9  1  0  0  0  0
  7 10  1  0  0  0  0
 10 11  1  0  0  0  0
 10 12  1  0  0  0  0
 10 13  1  0  0  0  0
 13 14  1  0  0  0  0
 13 15  1  0  0  0  0
 13 16  1  0  0  0  0
 16 17  1  0  0  0  0
 16 18  1  0  0  0  0
 16 19  1  0  0  0  0
 19 20  1  0  0  0  0
 19 21  1  0  0  0  0
 19 22  1  0  0  0  0
M  END
> <VConfSearch Rank>
139

> <Conf_Id>
94

> <Delta U+W>
3.471

> <U+W>
-49.688

> <U>
11.773

> <W>
-61.461

> <W(PB)>
-63.710

> <W(SA)>
2.248

> <Valence>
10.419

> <Coulomb>
0.566

> <VdW>
0.789

> <VdW6>
-8.847

> <VdW12>
9.636

> <Bond>
0.200

> <Angle>
3.187

> <Pdih>
7.032

> <Idih>
0.001

> <Tether>
0.000

$$$$
VeraChem MOL file


 22 21  0  0  0  0  0  0  0  0999 V2000     
   18.1996   18.8481   19.4732 C   0  0  0  0  0  0  0  0  0  0  0  0
   17.9294   19.6716   18.6213 O   0  5  0  0  0  0  0  0  0  0  0  0
   17.5239   17.8627   19.6944 O   0  0  0  0  0  0  0  0  0  0  0  0
   19.4443   19.0744   20.3238 C   0  0  0  0  0  0  0  0  0  0  0  0
   20.1923   19.5840   19.7049 H   0  0  0  0  0  0  0  0  0  0  0  0
   19.8527   18.0917   20.5856 H   0  0  0  0  0  0  0  0  0  0  0  0
   19.1548   19.9016   21.6029 C   0  0  0  0  0  0  0  0  0  0  0  0
   18.6715   20.8443   21.3118 H   0  0  0  0  0  0  0  0  0  0  0  0
   18.4272   19.3681   22.2289 H   0  0  0  0  0  0  0  0  0  0  0  0
   20.4251   20.2315   22.4264 C   0  0  0  0  0  0  0  0  0  0  0  0
   20.1411   20.8599   23.2807 H   0  0  0  0  0  0  0  0  0  0  0  0
   21.0945   20.8495   21.8128 H   0  0  0  0  0  0  0  0  0  0  0  0
   21.2187   19.0004   22.9379 C   0  0  0  0  0  0  0  0  0  0  0  0
   21.6427   18.4598   22.0817 H   0  0  0  0  0  0  0  0  0  0  0  0
   22.0799   19.3564   23.5194 H   0  0  0  0  0  0  0  0  0  0  0  0
   20.4073   18.0077   23.8063 C   0  0  0  0  0  0  0  0  0  0  0  0
   21.0617   17.1705   24.0853 H   0  0  0  0  0  0  0  0  0  0  0  0
   19.5897   17.5709   23.2174 H   0  0  0  0  0  0  0  0  0  0  0  0
   19.8403   18.6453   25.0930 C   0  0  0  0  0  0  0  0  0  0  0  0
   20.6398   19.1031   25.6897 H   0  0  0  0  0  0  0  0  0  0  0  0
   19.3470   17.8858   25.7131 H   0  0  0  0  0  0  0  0  0  0  0  0
   19.0977   19.4189   24.8604 H   0  0  0  0  0  0  0  0  0  0  0  0
  1  2  1  0  0  0  0
  1  3  2  0  0  0  0
  1  4  1  0  0  0  0
  4  5  1  0  0  0  0
  4  6  1  0  0  0  0
  4  7  1  0  0  0  0
  7  8  1  0  0  0  0
  7  9  1  0  0  0  0
  7 10  1  0  0  0  0
 10 11  1  0  0  0  0
 10 12  1  0  0  0  0
 10 13  1  0  0  0  0
 13 14  1  0  0  0  0
 13 15  1  0  0  0  0
 13 16  1  0  0  0  0
 16 17  1  0  0  0  0
 16 18  1  0  0  0  0
 16 19  1  0  0  0  0
 19 20  1  0  0  0  0
 19 21  1  0  0  0  0
 19 22  1  0  0  0  0
M  END
> <VConfSearch Rank>
140

> <Conf_Id>
56

> <Delta U+W>
0.853

> <U+W>
-52.307

> <U>
8.874

> <W>
-61.181

> <W(PB)>
-63.413

> <W(SA)>
2.232

> <Valence>
8.479

> <Coulomb>
-0.357

> <VdW>
0.753

> <VdW6>
-9.081

> <VdW12>
9.833

> <Bond>
0.221

> <Angle>
3.208

> <Pdih>
5.050

> <Idih>
0.000

> <Tether>
0.000

$$$$
VeraChem MOL file


 22 21  0  0  0  0  0  0  0  0999 V2000     
   18.6632   22.1562   24.3459 C   0  0  0  0  0  0  0  0  0  0  0  0
   18.6947   22.9034   23.3872 O   0  5  0  0  0  0  0  0  0  0  0  0
   18.3523   22.5217   25.4620 O   0  0  0  0  0  0  0  0  0  0  0  0
   19.0271   20.6809   24.1706 C   0  0  0  0  0  0  0  0  0  0  0  0
   18.1680   20.0898   24.5092 H   0  0  0  0  0  0  0  0  0  0  0  0
   19.8553   20.4648   24.8556 H   0  0  0  0  0  0  0  0  0  0  0  0
   19.4164   20.2614   22.7281 C   0  0  0  0  0  0  0  0  0  0  0  0
   18.5847   20.4864   22.0460 H   0  0  0  0  0  0  0  0  0  0  0  0
   20.2737   20.8616   22.3928 H   0  0  0  0  0  0  0  0  0  0  0  0
   19.7676   18.7602   22.6416 C   0  0  0  0  0  0  0  0  0  0  0  0
   18.9092   18.1623   22.9773 H   0  0  0  0  0  0  0  0  0  0  0  0
   20.5992   18.5377   23.3244 H   0  0  0  0  0  0  0  0  0  0  0  0
   20.1547   18.3451   21.2060 C   0  0  0  0  0  0  0  0  0  0  0  0
   19.3235   18.5675   20.5228 H   0  0  0  0  0  0  0  0  0  0  0  0
   21.0132   18.9427   20.8699 H   0  0  0  0  0  0  0  0  0  0  0  0
   20.5058   16.8450   21.1188 C   0  0  0  0  0  0  0  0  0  0  0  0
   19.6485   16.2439   21.4524 H   0  0  0  0  0  0  0  0  0  0  0  0
   21.3383   16.6191   21.7995 H   0  0  0  0  0  0  0  0  0  0  0  0
   20.8918   16.4345   19.6836 C   0  0  0  0  0  0  0  0  0  0  0  0
   20.0647   16.6205   18.9860 H   0  0  0  0  0  0  0  0  0  0  0  0
   21.1381   15.3656   19.6400 H   0  0  0  0  0  0  0  0  0  0  0  0
   21.7672   16.9986   19.3358 H   0  0  0  0  0  0  0  0  0  0  0  0
  1  2  1  0  0  0  0
  1  3  2  0  0  0  0
  1  4  1  0  0  0  0
  4  5  1  0  0  0  0
  4  6  1  0  0  0  0
  4  7  1  0  0  0  0
  7  8  1  0  0  0  0
  7  9  1  0  0  0  0
  7 10  1  0  0  0  0
 10 11  1  0  0  0  0
 10 12  1  0  0  0  0
 10 13  1  0  0  0  0
 13 14  1  0  0  0  0
 13 15  1  0  0  0  0
 13 16  1  0  0  0  0
 16 17  1  0  0  0  0
 16 18  1  0  0  0  0
 16 19  1  0  0  0  0
 19 20  1  0  0  0  0
 19 21  1  0  0  0  0
 19 22  1  0  0  0  0
M  END
> <VConfSearch Rank>
141

> <Conf_Id>
0

> <Delta U+W>
0.000

> <U+W>
-53.159

> <U>
6.763

> <W>
-59.922

> <W(PB)>
-62.256

> <W(SA)>
2.334

> <Valence>
7.600

> <Coulomb>
-2.139

> <VdW>
1.302

> <VdW6>
-6.786

> <VdW12>
8.088

> <Bond>
0.134

> <Angle>
2.720

> <Pdih>
4.746

> <Idih>
0.000

> <Tether>
0.000

$$$$
VeraChem MOL file


 22 21  0  0  0  0  0  0  0  0999 V2000     
   16.9621   16.4836   23.5500 C   0  0  0  0  0  0  0  0  0  0  0  0
   16.1809   16.9957   24.3272 O   0  5  0  0  0  0  0  0  0  0  0  0
   17.3065   15.3199   23.6107 O   0  0  0  0  0  0  0  0  0  0  0  0
   17.5603   17.3551   22.4515 C   0  0  0  0  0  0  0  0  0  0  0  0
   16.8117   18.1034   22.1646 H   0  0  0  0  0  0  0  0  0  0  0  0
   17.7391   16.7222   21.5739 H   0  0  0  0  0  0  0  0  0  0  0  0
   18.8737   18.0519   22.8845 C   0  0  0  0  0  0  0  0  0  0  0  0
   18.6807   18.6710   23.7716 H   0  0  0  0  0  0  0  0  0  0  0  0
   19.6080   17.2900   23.1810 H   0  0  0  0  0  0  0  0  0  0  0  0
   19.4590   18.9277   21.7557 C   0  0  0  0  0  0  0  0  0  0  0  0
   18.7221   19.6874   21.4609 H   0  0  0  0  0  0  0  0  0  0  0  0
   19.6497   18.3060   20.8701 H   0  0  0  0  0  0  0  0  0  0  0  0
   20.7682   19.6209   22.1902 C   0  0  0  0  0  0  0  0  0  0  0  0
   20.5780   20.2427   23.0758 H   0  0  0  0  0  0  0  0  0  0  0  0
   21.5054   18.8615   22.4851 H   0  0  0  0  0  0  0  0  0  0  0  0
   21.3538   20.4964   21.0625 C   0  0  0  0  0  0  0  0  0  0  0  0
   20.6199   21.2586   20.7662 H   0  0  0  0  0  0  0  0  0  0  0  0
   21.5473   19.8774   20.1754 H   0  0  0  0  0  0  0  0  0  0  0  0
   22.6610   21.1869   21.5003 C   0  0  0  0  0  0  0  0  0  0  0  0
   23.4244   20.4462   21.7725 H   0  0  0  0  0  0  0  0  0  0  0  0
   22.4900   21.8377   22.3679 H   0  0  0  0  0  0  0  0  0  0  0  0
   23.0633   21.8049   20.6871 H   0  0  0  0  0  0  0  0  0  0  0  0
  1  2  1  0  0  0  0
  1  3  2  0  0  0  0
  1  4  1  0  0  0  0
  4  5  1  0  0  0  0
  4  6  1  0  0  0  0
  4  7  1  0  0  0  0
  7  8  1  0  0  0  0
  7  9  1  0  0  0  0
  7 10  1  0  0  0  0
 10 11  1  0  0  0  0
 10 12  1  0  0  0  0
 10 13  1  0  0  0  0
 13 14  1  0  0  0  0
 13 15  1  0  0  0  0
 13 16  1  0  0  0  0
 16 17  1  0  0  0  0
 16 18  1  0  0  0  0
 16 19  1  0  0  0  0
 19 20  1  0  0  0  0
 19 21  1  0  0  0  0
 19 22  1  0  0  0  0
M  END
> <VConfSearch Rank>
142

> <Conf_Id>
10

> <Delta U+W>
-1.291

> <U+W>
-54.451

> <U>
5.779

> <W>
-60.230

> <W(PB)>
-62.557

> <W(SA)>
2.328

> <Valence>
7.101

> <Coulomb>
-2.079

> <VdW>
0.757

> <VdW6>
-6.496

> <VdW12>
7.253

> <Bond>
0.100

> <Angle>
2.262

> <Pdih>
4.738

> <Idih>
0.001

> <Tether>
0.000

$$$$
VeraChem MOL file


 22 21  0  0  0  0  0  0  0  0999 V2000     
   19.4695   18.6708   26.0732 C   0  0  0  0  0  0  0  0  0  0  0  0
   19.4901   19.7540   26.6232 O   0  5  0  0  0  0  0  0  0  0  0  0
   18.8950   17.6988   26.5222 O   0  0  0  0  0  0  0  0  0  0  0  0
   20.1865   18.5290   24.7352 C   0  0  0  0  0  0  0  0  0  0  0  0
   20.5667   17.5031   24.6594 H   0  0  0  0  0  0  0  0  0  0  0  0
   21.0559   19.1973   24.7421 H   0  0  0  0  0  0  0  0  0  0  0  0
   19.2740   18.8514   23.5263 C   0  0  0  0  0  0  0  0  0  0  0  0
   18.4020   18.1829   23.5418 H   0  0  0  0  0  0  0  0  0  0  0  0
   18.8916   19.8771   23.6235 H   0  0  0  0  0  0  0  0  0  0  0  0
   20.0229   18.7006   22.1844 C   0  0  0  0  0  0  0  0  0  0  0  0
   20.4021   17.6740   22.0891 H   0  0  0  0  0  0  0  0  0  0  0  0
   20.8954   19.3670   22.1825 H   0  0  0  0  0  0  0  0  0  0  0  0
   19.1088   19.0272   20.9810 C   0  0  0  0  0  0  0  0  0  0  0  0
   18.2074   18.4016   21.0368 H   0  0  0  0  0  0  0  0  0  0  0  0
   18.7685   20.0697   21.0467 H   0  0  0  0  0  0  0  0  0  0  0  0
   19.7869   18.7899   19.6117 C   0  0  0  0  0  0  0  0  0  0  0  0
   19.0390   18.9301   18.8191 H   0  0  0  0  0  0  0  0  0  0  0  0
   20.1231   17.7463   19.5398 H   0  0  0  0  0  0  0  0  0  0  0  0
   20.9762   19.7382   19.3459 C   0  0  0  0  0  0  0  0  0  0  0  0
   21.3649   19.5908   18.3300 H   0  0  0  0  0  0  0  0  0  0  0  0
   21.8002   19.5536   20.0464 H   0  0  0  0  0  0  0  0  0  0  0  0
   20.6706   20.7882   19.4419 H   0  0  0  0  0  0  0  0  0  0  0  0
  1  2  1  0  0  0  0
  1  3  2  0  0  0  0
  1  4  1  0  0  0  0
  4  5  1  0  0  0  0
  4  6  1  0  0  0  0
  4  7  1  0  0  0  0
  7  8  1  0  0  0  0
  7  9  1  0  0  0  0
  7 10  1  0  0  0  0
 10 11  1  0  0  0  0
 10 12  1  0  0  0  0
 10 13  1  0  0  0  0
 13 14  1  0  0  0  0
 13 15  1  0  0  0  0
 13 16  1  0  0  0  0
 16 17  1  0  0  0  0
 16 18  1  0  0  0  0
 16 19  1  0  0  0  0
 19 20  1  0  0  0  0
 19 21  1  0  0  0  0
 19 22  1  0  0  0  0
M  END
> <VConfSearch Rank>
143

> <Conf_Id>
37

> <Delta U+W>
-0.345

> <U+W>
-53.504

> <U>
6.751

> <W>
-60.255

> <W(PB)>
-62.592

> <W(SA)>
2.336

> <Valence>
7.602

> <Coulomb>
-1.744

> <VdW>
0.894

> <VdW6>
-7.110

> <VdW12>
8.004

> <Bond>
0.131

> <Angle>
2.489

> <Pdih>
4.982

> <Idih>
0.001

> <Tether>
0.000

$$$$
VeraChem MOL file


 22 21  0  0  0  0  0  0  0  0999 V2000     
   17.3784   18.2309   19.2625 C   0  0  0  0  0  0  0  0  0  0  0  0
   17.2133   19.1860   18.5298 O   0  5  0  0  0  0  0  0  0  0  0  0
   16.5588   17.3460   19.4098 O   0  0  0  0  0  0  0  0  0  0  0  0
   18.6766   18.1493   20.0576 C   0  0  0  0  0  0  0  0  0  0  0  0
   19.4726   18.6073   19.4583 H   0  0  0  0  0  0  0  0  0  0  0  0
   18.9335   17.0905   20.1830 H   0  0  0  0  0  0  0  0  0  0  0  0
   18.5811   18.8431   21.4388 C   0  0  0  0  0  0  0  0  0  0  0  0
   18.3111   19.8988   21.2968 H   0  0  0  0  0  0  0  0  0  0  0  0
   17.7710   18.3821   22.0208 H   0  0  0  0  0  0  0  0  0  0  0  0
   19.9073   18.7465   22.2237 C   0  0  0  0  0  0  0  0  0  0  0  0
   20.7104   19.2031   21.6306 H   0  0  0  0  0  0  0  0  0  0  0  0
   20.1734   17.6902   22.3661 H   0  0  0  0  0  0  0  0  0  0  0  0
   19.8079   19.4438   23.5999 C   0  0  0  0  0  0  0  0  0  0  0  0
   19.5920   20.5118   23.4591 H   0  0  0  0  0  0  0  0  0  0  0  0
   18.9560   19.0244   24.1525 H   0  0  0  0  0  0  0  0  0  0  0  0
   21.0803   19.2831   24.4640 C   0  0  0  0  0  0  0  0  0  0  0  0
   21.2958   18.2160   24.6124 H   0  0  0  0  0  0  0  0  0  0  0  0
   20.8845   19.7016   25.4609 H   0  0  0  0  0  0  0  0  0  0  0  0
   22.3186   19.9848   23.8651 C   0  0  0  0  0  0  0  0  0  0  0  0
   22.1166   21.0478   23.6798 H   0  0  0  0  0  0  0  0  0  0  0  0
   22.6229   19.5215   22.9183 H   0  0  0  0  0  0  0  0  0  0  0  0
   23.1691   19.9178   24.5559 H   0  0  0  0  0  0  0  0  0  0  0  0
  1  2  1  0  0  0  0
  1  3  2  0  0  0  0
  1  4  1  0  0  0  0
  4  5  1  0  0  0  0
  4  6  1  0  0  0  0
  4  7  1  0  0  0  0
  7  8  1  0  0  0  0
  7  9  1  0  0  0  0
  7 10  1  0  0  0  0
 10 11  1  0  0  0  0
 10 12  1  0  0  0  0
 10 13  1  0  0  0  0
 13 14  1  0  0  0  0
 13 15  1  0  0  0  0
 13 16  1  0  0  0  0
 16 17  1  0  0  0  0
 16 18  1  0  0  0  0
 16 19  1  0  0  0  0
 19 20  1  0  0  0  0
 19 21  1  0  0  0  0
 19 22  1  0  0  0  0
M  END
> <VConfSearch Rank>
144

> <Conf_Id>
38

> <Delta U+W>
-0.439

> <U+W>
-53.598

> <U>
6.751

> <W>
-60.350

> <W(PB)>
-62.659

> <W(SA)>
2.309

> <Valence>
7.602

> <Coulomb>
-1.744

> <VdW>
0.893

> <VdW6>
-7.110

> <VdW12>
8.004

> <Bond>
0.131

> <Angle>
2.489

> <Pdih>
4.981

> <Idih>
0.001

> <Tether>
0.000

$$$$
VeraChem MOL file


 22 21  0  0  0  0  0  0  0  0999 V2000     
   18.1686   18.0885   18.9937 C   0  0  0  0  0  0  0  0  0  0  0  0
   17.6767   18.9008   18.2355 O   0  5  0  0  0  0  0  0  0  0  0  0
   17.8713   16.9103   19.0025 O   0  0  0  0  0  0  0  0  0  0  0  0
   19.1989   18.5791   20.0047 C   0  0  0  0  0  0  0  0  0  0  0  0
   19.7474   19.4143   19.5531 H   0  0  0  0  0  0  0  0  0  0  0  0
   19.9172   17.7679   20.1675 H   0  0  0  0  0  0  0  0  0  0  0  0
   18.5588   19.0223   21.3461 C   0  0  0  0  0  0  0  0  0  0  0  0
   17.7769   19.7645   21.1334 H   0  0  0  0  0  0  0  0  0  0  0  0
   18.0537   18.1656   21.8132 H   0  0  0  0  0  0  0  0  0  0  0  0
   19.5690   19.6408   22.3419 C   0  0  0  0  0  0  0  0  0  0  0  0
   19.0037   20.0483   23.1896 H   0  0  0  0  0  0  0  0  0  0  0  0
   20.0781   20.4915   21.8689 H   0  0  0  0  0  0  0  0  0  0  0  0
   20.6180   18.6278   22.8630 C   0  0  0  0  0  0  0  0  0  0  0  0
   20.1087   17.7762   23.3344 H   0  0  0  0  0  0  0  0  0  0  0  0
   21.1862   18.2217   22.0166 H   0  0  0  0  0  0  0  0  0  0  0  0
   21.6247   19.2453   23.8616 C   0  0  0  0  0  0  0  0  0  0  0  0
   22.1281   20.1048   23.3977 H   0  0  0  0  0  0  0  0  0  0  0  0
   22.4083   18.5048   24.0736 H   0  0  0  0  0  0  0  0  0  0  0  0
   20.9794   19.6781   25.1961 C   0  0  0  0  0  0  0  0  0  0  0  0
   20.2739   20.5056   25.0515 H   0  0  0  0  0  0  0  0  0  0  0  0
   21.7487   20.0182   25.9013 H   0  0  0  0  0  0  0  0  0  0  0  0
   20.4406   18.8424   25.6613 H   0  0  0  0  0  0  0  0  0  0  0  0
  1  2  1  0  0  0  0
  1  3  2  0  0  0  0
  1  4  1  0  0  0  0
  4  5  1  0  0  0  0
  4  6  1  0  0  0  0
  4  7  1  0  0  0  0
  7  8  1  0  0  0  0
  7  9  1  0  0  0  0
  7 10  1  0  0  0  0
 10 11  1  0  0  0  0
 10 12  1  0  0  0  0
 10 13  1  0  0  0  0
 13 14  1  0  0  0  0
 13 15  1  0  0  0  0
 13 16  1  0  0  0  0
 16 17  1  0  0  0  0
 16 18  1  0  0  0  0
 16 19  1  0  0  0  0
 19 20  1  0  0  0  0
 19 21  1  0  0  0  0
 19 22  1  0  0  0  0
M  END
> <VConfSearch Rank>
145

> <Conf_Id>
60

> <Delta U+W>
0.386

> <U+W>
-52.773

> <U>
7.689

> <W>
-60.463

> <W(PB)>
-62.772

> <W(SA)>
2.309

> <Valence>
8.197

> <Coulomb>
-1.561

> <VdW>
1.053

> <VdW6>
-7.737

> <VdW12>
8.790

> <Bond>
0.181

> <Angle>
2.780

> <Pdih>
5.235

> <Idih>
0.001

> <Tether>
0.000

$$$$
VeraChem MOL file


 22 21  0  0  0  0  0  0  0  0999 V2000     
   20.2122   19.1172   18.4832 C   0  0  0  0  0  0  0  0  0  0  0  0
   19.2083   18.6915   17.9470 O   0  5  0  0  0  0  0  0  0  0  0  0
   21.2802   19.2340   17.9154 O   0  0  0  0  0  0  0  0  0  0  0  0
   20.1334   19.5047   19.9556 C   0  0  0  0  0  0  0  0  0  0  0  0
   19.1269   19.8951   20.1431 H   0  0  0  0  0  0  0  0  0  0  0  0
   20.8391   20.3259   20.1292 H   0  0  0  0  0  0  0  0  0  0  0  0
   20.4477   18.3193   20.9051 C   0  0  0  0  0  0  0  0  0  0  0  0
   19.7055   17.5228   20.7571 H   0  0  0  0  0  0  0  0  0  0  0  0
   21.4203   17.8925   20.6235 H   0  0  0  0  0  0  0  0  0  0  0  0
   20.4971   18.7172   22.3998 C   0  0  0  0  0  0  0  0  0  0  0  0
   21.2340   19.5191   22.5430 H   0  0  0  0  0  0  0  0  0  0  0  0
   20.8627   17.8531   22.9690 H   0  0  0  0  0  0  0  0  0  0  0  0
   19.1250   19.1612   22.9640 C   0  0  0  0  0  0  0  0  0  0  0  0
   18.7597   20.0272   22.3977 H   0  0  0  0  0  0  0  0  0  0  0  0
   18.3877   18.3599   22.8190 H   0  0  0  0  0  0  0  0  0  0  0  0
   19.1740   19.5544   24.4590 C   0  0  0  0  0  0  0  0  0  0  0  0
   18.2026   19.9834   24.7413 H   0  0  0  0  0  0  0  0  0  0  0  0
   19.9188   20.3480   24.6100 H   0  0  0  0  0  0  0  0  0  0  0  0
   19.4813   18.3667   25.3969 C   0  0  0  0  0  0  0  0  0  0  0  0
   18.7690   17.5465   25.2386 H   0  0  0  0  0  0  0  0  0  0  0  0
   19.4090   18.6788   26.4468 H   0  0  0  0  0  0  0  0  0  0  0  0
   20.4948   17.9792   25.2357 H   0  0  0  0  0  0  0  0  0  0  0  0
  1  2  1  0  0  0  0
  1  3  2  0  0  0  0
  1  4  1  0  0  0  0
  4  5  1  0  0  0  0
  4  6  1  0  0  0  0
  4  7  1  0  0  0  0
  7  8  1  0  0  0  0
  7  9  1  0  0  0  0
  7 10  1  0  0  0  0
 10 11  1  0  0  0  0
 10 12  1  0  0  0  0
 10 13  1  0  0  0  0
 13 14  1  0  0  0  0
 13 15  1  0  0  0  0
 13 16  1  0  0  0  0
 16 17  1  0  0  0  0
 16 18  1  0  0  0  0
 16 19  1  0  0  0  0
 19 20  1  0  0  0  0
 19 21  1  0  0  0  0
 19 22  1  0  0  0  0
M  END
> <VConfSearch Rank>
146

> <Conf_Id>
28

> <Delta U+W>
0.351

> <U+W>
-52.808

> <U>
7.689

> <W>
-60.498

> <W(PB)>
-62.768

> <W(SA)>
2.270

> <Valence>
8.197

> <Coulomb>
-1.561

> <VdW>
1.053

> <VdW6>
-7.737

> <VdW12>
8.791

> <Bond>
0.181

> <Angle>
2.780

> <Pdih>
5.235

> <Idih>
0.001

> <Tether>
0.000

$$$$
VeraChem MOL file


 22 21  0  0  0  0  0  0  0  0999 V2000     
   23.1033   18.7674   24.2044 C   0  0  0  0  0  0  0  0  0  0  0  0
   23.2781   19.6403   25.0314 O   0  5  0  0  0  0  0  0  0  0  0  0
   23.3716   17.5975   24.3937 O   0  0  0  0  0  0  0  0  0  0  0  0
   22.4952   19.1586   22.8622 C   0  0  0  0  0  0  0  0  0  0  0  0
   22.9047   18.4907   22.0949 H   0  0  0  0  0  0  0  0  0  0  0  0
   22.8296   20.1745   22.6200 H   0  0  0  0  0  0  0  0  0  0  0  0
   20.9481   19.0894   22.8597 C   0  0  0  0  0  0  0  0  0  0  0  0
   20.6384   18.0698   23.1242 H   0  0  0  0  0  0  0  0  0  0  0  0
   20.5540   19.7564   23.6389 H   0  0  0  0  0  0  0  0  0  0  0  0
   20.3587   19.4861   21.4863 C   0  0  0  0  0  0  0  0  0  0  0  0
   20.7111   18.7869   20.7156 H   0  0  0  0  0  0  0  0  0  0  0  0
   20.7423   20.4767   21.2060 H   0  0  0  0  0  0  0  0  0  0  0  0
   18.8125   19.5374   21.4707 C   0  0  0  0  0  0  0  0  0  0  0  0
   18.4598   20.2395   22.2385 H   0  0  0  0  0  0  0  0  0  0  0  0
   18.4877   19.9457   20.5039 H   0  0  0  0  0  0  0  0  0  0  0  0
   18.1477   18.1583   21.6811 C   0  0  0  0  0  0  0  0  0  0  0  0
   18.3965   17.7659   22.6759 H   0  0  0  0  0  0  0  0  0  0  0  0
   18.5398   17.4417   20.9462 H   0  0  0  0  0  0  0  0  0  0  0  0
   16.6141   18.2434   21.5453 C   0  0  0  0  0  0  0  0  0  0  0  0
   16.3267   18.5966   20.5462 H   0  0  0  0  0  0  0  0  0  0  0  0
   16.1921   18.9335   22.2876 H   0  0  0  0  0  0  0  0  0  0  0  0
   16.1568   17.2576   21.7004 H   0  0  0  0  0  0  0  0  0  0  0  0
  1  2  1  0  0  0  0
  1  3  2  0  0  0  0
  1  4  1  0  0  0  0
  4  5  1  0  0  0  0
  4  6  1  0  0  0  0
  4  7  1  0  0  0  0
  7  8  1  0  0  0  0
  7  9  1  0  0  0  0
  7 10  1  0  0  0  0
 10 11  1  0  0  0  0
 10 12  1  0  0  0  0
 10 13  1  0  0  0  0
 13 14  1  0  0  0  0
 13 15  1  0  0  0  0
 13 16  1  0  0  0  0
 16 17  1  0  0  0  0
 16 18  1  0  0  0  0
 16 19  1  0  0  0  0
 19 20  1  0  0  0  0
 19 21  1  0  0  0  0
 19 22  1  0  0  0  0
M  END
> <VConfSearch Rank>
147

> <Conf_Id>
50

> <Delta U+W>
-0.486

> <U+W>
-53.646

> <U>
7.026

> <W>
-60.672

> <W(PB)>
-62.964

> <W(SA)>
2.292

> <Valence>
7.637

> <Coulomb>
-1.488

> <VdW>
0.877

> <VdW6>
-7.165

> <VdW12>
8.043

> <Bond>
0.134

> <Angle>
2.513

> <Pdih>
4.990

> <Idih>
0.001

> <Tether>
0.000

$$$$
VeraChem MOL file


 22 21  0  0  0  0  0  0  0  0999 V2000     
   20.6594   19.5448   18.6767 C   0  0  0  0  0  0  0  0  0  0  0  0
   19.9498   20.2910   18.0316 O   0  5  0  0  0  0  0  0  0  0  0  0
   21.0919   18.4921   18.2510 O   0  0  0  0  0  0  0  0  0  0  0  0
   21.0098   19.9417   20.1064 C   0  0  0  0  0  0  0  0  0  0  0  0
   21.0700   21.0357   20.1510 H   0  0  0  0  0  0  0  0  0  0  0  0
   22.0097   19.5523   20.3328 H   0  0  0  0  0  0  0  0  0  0  0  0
   19.9858   19.4190   21.1440 C   0  0  0  0  0  0  0  0  0  0  0  0
   18.9888   19.8102   20.8983 H   0  0  0  0  0  0  0  0  0  0  0  0
   19.9290   18.3253   21.0661 H   0  0  0  0  0  0  0  0  0  0  0  0
   20.3678   19.8318   22.5844 C   0  0  0  0  0  0  0  0  0  0  0  0
   20.4943   20.9224   22.6214 H   0  0  0  0  0  0  0  0  0  0  0  0
   21.3413   19.3968   22.8490 H   0  0  0  0  0  0  0  0  0  0  0  0
   19.3144   19.4249   23.6419 C   0  0  0  0  0  0  0  0  0  0  0  0
   19.6026   19.8638   24.6069 H   0  0  0  0  0  0  0  0  0  0  0  0
   18.3416   19.8629   23.3799 H   0  0  0  0  0  0  0  0  0  0  0  0
   19.1687   17.8956   23.8104 C   0  0  0  0  0  0  0  0  0  0  0  0
   20.1510   17.4506   24.0205 H   0  0  0  0  0  0  0  0  0  0  0  0
   18.8052   17.4449   22.8776 H   0  0  0  0  0  0  0  0  0  0  0  0
   18.1925   17.5431   24.9509 C   0  0  0  0  0  0  0  0  0  0  0  0
   17.1935   17.9532   24.7531 H   0  0  0  0  0  0  0  0  0  0  0  0
   18.5453   17.9461   25.9092 H   0  0  0  0  0  0  0  0  0  0  0  0
   18.0974   16.4545   25.0558 H   0  0  0  0  0  0  0  0  0  0  0  0
  1  2  1  0  0  0  0
  1  3  2  0  0  0  0
  1  4  1  0  0  0  0
  4  5  1  0  0  0  0
  4  6  1  0  0  0  0
  4  7  1  0  0  0  0
  7  8  1  0  0  0  0
  7  9  1  0  0  0  0
  7 10  1  0  0  0  0
 10 11  1  0  0  0  0
 10 12  1  0  0  0  0
 10 13  1  0  0  0  0
 13 14  1  0  0  0  0
 13 15  1  0  0  0  0
 13 16  1  0  0  0  0
 16 17  1  0  0  0  0
 16 18  1  0  0  0  0
 16 19  1  0  0  0  0
 19 20  1  0  0  0  0
 19 21  1  0  0  0  0
 19 22  1  0  0  0  0
M  END
> <VConfSearch Rank>
148

> <Conf_Id>
51

> <Delta U+W>
-0.517

> <U+W>
-53.677

> <U>
7.026

> <W>
-60.703

> <W(PB)>
-63.007

> <W(SA)>
2.304

> <Valence>
7.638

> <Coulomb>
-1.488

> <VdW>
0.877

> <VdW6>
-7.165

> <VdW12>
8.042

> <Bond>
0.134

> <Angle>
2.513

> <Pdih>
4.990

> <Idih>
0.001

> <Tether>
0.000

$$$$
VeraChem MOL file


 22 21  0  0  0  0  0  0  0  0999 V2000     
   23.1605   20.1923   21.9798 C   0  0  0  0  0  0  0  0  0  0  0  0
   23.9034   19.4747   21.3395 O   0  5  0  0  0  0  0  0  0  0  0  0
   22.8482   21.3151   21.6353 O   0  0  0  0  0  0  0  0  0  0  0  0
   22.6057   19.6593   23.2978 C   0  0  0  0  0  0  0  0  0  0  0  0
   22.2583   20.5076   23.9001 H   0  0  0  0  0  0  0  0  0  0  0  0
   23.4396   19.2028   23.8439 H   0  0  0  0  0  0  0  0  0  0  0  0
   21.4667   18.6205   23.1287 C   0  0  0  0  0  0  0  0  0  0  0  0
   21.8208   17.7913   22.5004 H   0  0  0  0  0  0  0  0  0  0  0  0
   21.2261   18.1923   24.1112 H   0  0  0  0  0  0  0  0  0  0  0  0
   20.1890   19.2344   22.5138 C   0  0  0  0  0  0  0  0  0  0  0  0
   20.4180   19.6500   21.5227 H   0  0  0  0  0  0  0  0  0  0  0  0
   19.8467   20.0710   23.1383 H   0  0  0  0  0  0  0  0  0  0  0  0
   19.0588   18.1908   22.3837 C   0  0  0  0  0  0  0  0  0  0  0  0
   19.4018   17.3546   21.7591 H   0  0  0  0  0  0  0  0  0  0  0  0
   18.8259   17.7759   23.3740 H   0  0  0  0  0  0  0  0  0  0  0  0
   17.7827   18.8030   21.7690 C   0  0  0  0  0  0  0  0  0  0  0  0
   18.0114   19.2176   20.7774 H   0  0  0  0  0  0  0  0  0  0  0  0
   17.4355   19.6388   22.3922 H   0  0  0  0  0  0  0  0  0  0  0  0
   16.6565   17.7578   21.6401 C   0  0  0  0  0  0  0  0  0  0  0  0
   16.9658   16.9246   20.9955 H   0  0  0  0  0  0  0  0  0  0  0  0
   15.7574   18.2099   21.2016 H   0  0  0  0  0  0  0  0  0  0  0  0
   16.3857   17.3490   22.6224 H   0  0  0  0  0  0  0  0  0  0  0  0
  1  2  1  0  0  0  0
  1  3  2  0  0  0  0
  1  4  1  0  0  0  0
  4  5  1  0  0  0  0
  4  6  1  0  0  0  0
  4  7  1  0  0  0  0
  7  8  1  0  0  0  0
  7  9  1  0  0  0  0
  7 10  1  0  0  0  0
 10 11  1  0  0  0  0
 10 12  1  0  0  0  0
 10 13  1  0  0  0  0
 13 14  1  0  0  0  0
 13 15  1  0  0  0  0
 13 16  1  0  0  0  0
 16 17  1  0  0  0  0
 16 18  1  0  0  0  0
 16 19  1  0  0  0  0
 19 20  1  0  0  0  0
 19 21  1  0  0  0  0
 19 22  1  0  0  0  0
M  END
> <VConfSearch Rank>
149

> <Conf_Id>
43

> <Delta U+W>
-0.129

> <U+W>
-53.289

> <U>
7.937

> <W>
-61.225

> <W(PB)>
-63.523

> <W(SA)>
2.297

> <Valence>
7.358

> <Coulomb>
-0.022

> <VdW>
0.601

> <VdW6>
-7.363

> <VdW12>
7.964

> <Bond>
0.121

> <Angle>
2.425

> <Pdih>
4.811

> <Idih>
0.000

> <Tether>
0.000

$$$$
VeraChem MOL file


 22 21  0  0  0  0  0  0  0  0999 V2000     
   20.6304   16.4562   24.4226 C   0  0  0  0  0  0  0  0  0  0  0  0
   21.8237   16.2277   24.3970 O   0  5  0  0  0  0  0  0  0  0  0  0
   19.7843   15.6517   24.0853 O   0  0  0  0  0  0  0  0  0  0  0  0
   20.1706   17.8225   24.9234 C   0  0  0  0  0  0  0  0  0  0  0  0
   20.7329   18.0426   25.8385 H   0  0  0  0  0  0  0  0  0  0  0  0
   19.1139   17.7534   25.2090 H   0  0  0  0  0  0  0  0  0  0  0  0
   20.3750   18.9707   23.9012 C   0  0  0  0  0  0  0  0  0  0  0  0
   20.1493   19.9278   24.3904 H   0  0  0  0  0  0  0  0  0  0  0  0
   21.4323   19.0091   23.6037 H   0  0  0  0  0  0  0  0  0  0  0  0
   19.4841   18.8164   22.6482 C   0  0  0  0  0  0  0  0  0  0  0  0
   18.4295   18.7653   22.9519 H   0  0  0  0  0  0  0  0  0  0  0  0
   19.7163   17.8684   22.1434 H   0  0  0  0  0  0  0  0  0  0  0  0
   19.6807   19.9856   21.6594 C   0  0  0  0  0  0  0  0  0  0  0  0
   19.4463   20.9345   22.1611 H   0  0  0  0  0  0  0  0  0  0  0  0
   20.7355   20.0360   21.3561 H   0  0  0  0  0  0  0  0  0  0  0  0
   18.7918   19.8318   20.4075 C   0  0  0  0  0  0  0  0  0  0  0  0
   17.7356   19.7827   20.7068 H   0  0  0  0  0  0  0  0  0  0  0  0
   19.0247   18.8844   19.9020 H   0  0  0  0  0  0  0  0  0  0  0  0
   18.9912   21.0009   19.4221 C   0  0  0  0  0  0  0  0  0  0  0  0
   18.7349   21.9592   19.8925 H   0  0  0  0  0  0  0  0  0  0  0  0
   18.3521   20.8754   18.5385 H   0  0  0  0  0  0  0  0  0  0  0  0
   20.0336   21.0540   19.0816 H   0  0  0  0  0  0  0  0  0  0  0  0
  1  2  1  0  0  0  0
  1  3  2  0  0  0  0
  1  4  1  0  0  0  0
  4  5  1  0  0  0  0
  4  6  1  0  0  0  0
  4  7  1  0  0  0  0
  7  8  1  0  0  0  0
  7  9  1  0  0  0  0
  7 10  1  0  0  0  0
 10 11  1  0  0  0  0
 10 12  1  0  0  0  0
 10 13  1  0  0  0  0
 13 14  1  0  0  0  0
 13 15  1  0  0  0  0
 13 16  1  0  0  0  0
 16 17  1  0  0  0  0
 16 18  1  0  0  0  0
 16 19  1  0  0  0  0
 19 20  1  0  0  0  0
 19 21  1  0  0  0  0
 19 22  1  0  0  0  0
M  END
> <VConfSearch Rank>
150

> <Conf_Id>
44

> <Delta U+W>
-0.155

> <U+W>
-53.314

> <U>
7.937

> <W>
-61.252

> <W(PB)>
-63.556

> <W(SA)>
2.304

> <Valence>
7.358

> <Coulomb>
-0.021

> <VdW>
0.600

> <VdW6>
-7.363

> <VdW12>
7.964

> <Bond>
0.121

> <Angle>
2.425

> <Pdih>
4.811

> <Idih>
0.001

> <Tether>
0.000

$$$$
VeraChem MOL file


 22 21  0  0  0  0  0  0  0  0999 V2000     
   19.7998   16.6232   19.7101 C   0  0  0  0  0  0  0  0  0  0  0  0
   20.9240   16.2043   19.5159 O   0  5  0  0  0  0  0  0  0  0  0  0
   19.0709   17.0273   18.8257 O   0  0  0  0  0  0  0  0  0  0  0  0
   19.2696   16.6230   21.1413 C   0  0  0  0  0  0  0  0  0  0  0  0
   19.5122   15.6479   21.5797 H   0  0  0  0  0  0  0  0  0  0  0  0
   18.1755   16.6935   21.1099 H   0  0  0  0  0  0  0  0  0  0  0  0
   19.8533   17.7504   22.0323 C   0  0  0  0  0  0  0  0  0  0  0  0
   19.5363   17.5738   23.0679 H   0  0  0  0  0  0  0  0  0  0  0  0
   20.9504   17.6915   22.0215 H   0  0  0  0  0  0  0  0  0  0  0  0
   19.3989   19.1593   21.5809 C   0  0  0  0  0  0  0  0  0  0  0  0
   18.3039   19.2301   21.6328 H   0  0  0  0  0  0  0  0  0  0  0  0
   19.6682   19.3039   20.5257 H   0  0  0  0  0  0  0  0  0  0  0  0
   20.0323   20.3052   22.4054 C   0  0  0  0  0  0  0  0  0  0  0  0
   21.1273   20.2339   22.3534 H   0  0  0  0  0  0  0  0  0  0  0  0
   19.7610   21.2611   21.9369 H   0  0  0  0  0  0  0  0  0  0  0  0
   19.5806   20.3259   23.8832 C   0  0  0  0  0  0  0  0  0  0  0  0
   19.9127   19.4125   24.3936 H   0  0  0  0  0  0  0  0  0  0  0  0
   18.4832   20.3420   23.9352 H   0  0  0  0  0  0  0  0  0  0  0  0
   20.1464   21.5506   24.6300 C   0  0  0  0  0  0  0  0  0  0  0  0
   21.2443   21.5454   24.6169 H   0  0  0  0  0  0  0  0  0  0  0  0
   19.8199   21.5494   25.6780 H   0  0  0  0  0  0  0  0  0  0  0  0
   19.8024   22.4858   24.1691 H   0  0  0  0  0  0  0  0  0  0  0  0
  1  2  1  0  0  0  0
  1  3  2  0  0  0  0
  1  4  1  0  0  0  0
  4  5  1  0  0  0  0
  4  6  1  0  0  0  0
  4  7  1  0  0  0  0
  7  8  1  0  0  0  0
  7  9  1  0  0  0  0
  7 10  1  0  0  0  0
 10 11  1  0  0  0  0
 10 12  1  0  0  0  0
 10 13  1  0  0  0  0
 13 14  1  0  0  0  0
 13 15  1  0  0  0  0
 13 16  1  0  0  0  0
 16 17  1  0  0  0  0
 16 18  1  0  0  0  0
 16 19  1  0  0  0  0
 19 20  1  0  0  0  0
 19 21  1  0  0  0  0
 19 22  1  0  0  0  0
M  END
> <VConfSearch Rank>
151

> <Conf_Id>
53

> <Delta U+W>
0.723

> <U+W>
-52.436

> <U>
8.587

> <W>
-61.022

> <W(PB)>
-63.285

> <W(SA)>
2.263

> <Valence>
7.933

> <Coulomb>
-0.124

> <VdW>
0.778

> <VdW6>
-7.981

> <VdW12>
8.759

> <Bond>
0.160

> <Angle>
2.698

> <Pdih>
5.074

> <Idih>
0.001

> <Tether>
0.000

$$$$
VeraChem MOL file


 22 21  0  0  0  0  0  0  0  0999 V2000     
   17.2936   21.2449   22.3335 C   0  0  0  0  0  0  0  0  0  0  0  0
   17.7518   22.3297   22.0340 O   0  5  0  0  0  0  0  0  0  0  0  0
   16.1092   21.0413   22.5130 O   0  0  0  0  0  0  0  0  0  0  0  0
   18.2548   20.0695   22.4700 C   0  0  0  0  0  0  0  0  0  0  0  0
   17.8480   19.3816   23.2208 H   0  0  0  0  0  0  0  0  0  0  0  0
   19.2023   20.4599   22.8580 H   0  0  0  0  0  0  0  0  0  0  0  0
   18.4870   19.3254   21.1308 C   0  0  0  0  0  0  0  0  0  0  0  0
   17.5106   19.0667   20.6981 H   0  0  0  0  0  0  0  0  0  0  0  0
   18.9682   20.0081   20.4169 H   0  0  0  0  0  0  0  0  0  0  0  0
   19.3271   18.0297   21.2572 C   0  0  0  0  0  0  0  0  0  0  0  0
   19.3806   17.5719   20.2599 H   0  0  0  0  0  0  0  0  0  0  0  0
   18.8041   17.3012   21.8919 H   0  0  0  0  0  0  0  0  0  0  0  0
   20.7745   18.2457   21.7671 C   0  0  0  0  0  0  0  0  0  0  0  0
   21.4362   17.5409   21.2451 H   0  0  0  0  0  0  0  0  0  0  0  0
   21.1243   19.2511   21.4956 H   0  0  0  0  0  0  0  0  0  0  0  0
   20.9298   18.0136   23.2879 C   0  0  0  0  0  0  0  0  0  0  0  0
   20.6306   16.9858   23.5351 H   0  0  0  0  0  0  0  0  0  0  0  0
   20.2630   18.6782   23.8503 H   0  0  0  0  0  0  0  0  0  0  0  0
   22.3825   18.2454   23.7497 C   0  0  0  0  0  0  0  0  0  0  0  0
   23.0724   17.5650   23.2335 H   0  0  0  0  0  0  0  0  0  0  0  0
   22.4779   18.0701   24.8291 H   0  0  0  0  0  0  0  0  0  0  0  0
   22.6995   19.2762   23.5444 H   0  0  0  0  0  0  0  0  0  0  0  0
  1  2  1  0  0  0  0
  1  3  2  0  0  0  0
  1  4  1  0  0  0  0
  4  5  1  0  0  0  0
  4  6  1  0  0  0  0
  4  7  1  0  0  0  0
  7  8  1  0  0  0  0
  7  9  1  0  0  0  0
  7 10  1  0  0  0  0
 10 11  1  0  0  0  0
 10 12  1  0  0  0  0
 10 13  1  0  0  0  0
 13 14  1  0  0  0  0
 13 15  1  0  0  0  0
 13 16  1  0  0  0  0
 16 17  1  0  0  0  0
 16 18  1  0  0  0  0
 16 19  1  0  0  0  0
 19 20  1  0  0  0  0
 19 21  1  0  0  0  0
 19 22  1  0  0  0  0
M  END
> <VConfSearch Rank>
152

> <Conf_Id>
5

> <Delta U+W>
2.167

> <U+W>
-50.993

> <U>
10.045

> <W>
-61.037

> <W(PB)>
-63.303

> <W(SA)>
2.266

> <Valence>
10.100

> <Coulomb>
-0.883

> <VdW>
0.828

> <VdW6>
-8.177

> <VdW12>
9.005

> <Bond>
0.182

> <Angle>
2.988

> <Pdih>
6.930

> <Idih>
0.001

> <Tether>
0.000

$$$$
VeraChem MOL file


 22 21  0  0  0  0  0  0  0  0999 V2000     
   22.7297   19.3071   24.0412 C   0  0  0  0  0  0  0  0  0  0  0  0
   22.4733   19.4735   25.2172 O   0  5  0  0  0  0  0  0  0  0  0  0
   23.8536   19.3663   23.5829 O   0  0  0  0  0  0  0  0  0  0  0  0
   21.5756   19.0315   23.0840 C   0  0  0  0  0  0  0  0  0  0  0  0
   20.8218   18.4548   23.6316 H   0  0  0  0  0  0  0  0  0  0  0  0
   21.9506   18.3985   22.2710 H   0  0  0  0  0  0  0  0  0  0  0  0
   20.9497   20.3275   22.5097 C   0  0  0  0  0  0  0  0  0  0  0  0
   20.5088   20.9101   23.3303 H   0  0  0  0  0  0  0  0  0  0  0  0
   21.7519   20.9489   22.0881 H   0  0  0  0  0  0  0  0  0  0  0  0
   19.8837   20.0894   21.4108 C   0  0  0  0  0  0  0  0  0  0  0  0
   20.3403   19.5941   20.5429 H   0  0  0  0  0  0  0  0  0  0  0  0
   19.5531   21.0738   21.0523 H   0  0  0  0  0  0  0  0  0  0  0  0
   18.6342   19.3033   21.8826 C   0  0  0  0  0  0  0  0  0  0  0  0
   18.4694   19.4657   22.9566 H   0  0  0  0  0  0  0  0  0  0  0  0
   17.7519   19.7138   21.3728 H   0  0  0  0  0  0  0  0  0  0  0  0
   18.7081   17.7905   21.5715 C   0  0  0  0  0  0  0  0  0  0  0  0
   19.5938   17.3429   22.0379 H   0  0  0  0  0  0  0  0  0  0  0  0
   18.8152   17.6431   20.4879 H   0  0  0  0  0  0  0  0  0  0  0  0
   17.4484   17.0500   22.0634 C   0  0  0  0  0  0  0  0  0  0  0  0
   17.3325   17.1527   23.1503 H   0  0  0  0  0  0  0  0  0  0  0  0
   17.5126   15.9795   21.8291 H   0  0  0  0  0  0  0  0  0  0  0  0
   16.5452   17.4486   21.5830 H   0  0  0  0  0  0  0  0  0  0  0  0
  1  2  1  0  0  0  0
  1  3  2  0  0  0  0
  1  4  1  0  0  0  0
  4  5  1  0  0  0  0
  4  6  1  0  0  0  0
  4  7  1  0  0  0  0
  7  8  1  0  0  0  0
  7  9  1  0  0  0  0
  7 10  1  0  0  0  0
 10 11  1  0  0  0  0
 10 12  1  0  0  0  0
 10 13  1  0  0  0  0
 13 14  1  0  0  0  0
 13 15  1  0  0  0  0
 13 16  1  0  0  0  0
 16 17  1  0  0  0  0
 16 18  1  0  0  0  0
 16 19  1  0  0  0  0
 19 20  1  0  0  0  0
 19 21  1  0  0  0  0
 19 22  1  0  0  0  0
M  END
> <VConfSearch Rank>
153

> <Conf_Id>
6

> <Delta U+W>
2.118

> <U+W>
-51.042

> <U>
10.045

> <W>
-61.086

> <W(PB)>
-63.356

> <W(SA)>
2.270

> <Valence>
10.100

> <Coulomb>
-0.883

> <VdW>
0.828

> <VdW6>
-8.177

> <VdW12>
9.004

> <Bond>
0.182

> <Angle>
2.988

> <Pdih>
6.930

> <Idih>
0.001

> <Tether>
0.000

$$$$
VeraChem MOL file


 22 21  0  0  0  0  0  0  0  0999 V2000     
   20.6647   21.4605   22.2747 C   0  0  0  0  0  0  0  0  0  0  0  0
   21.6958   21.4993   22.9172 O   0  5  0  0  0  0  0  0  0  0  0  0
   19.6569   22.0635   22.5876 O   0  0  0  0  0  0  0  0  0  0  0  0
   20.6540   20.6699   20.9677 C   0  0  0  0  0  0  0  0  0  0  0  0
   21.3808   21.1567   20.3072 H   0  0  0  0  0  0  0  0  0  0  0  0
   19.6726   20.7822   20.4910 H   0  0  0  0  0  0  0  0  0  0  0  0
   21.0195   19.1646   21.0994 C   0  0  0  0  0  0  0  0  0  0  0  0
   21.3354   18.8048   20.1108 H   0  0  0  0  0  0  0  0  0  0  0  0
   21.8925   19.0471   21.7565 H   0  0  0  0  0  0  0  0  0  0  0  0
   19.8633   18.2554   21.5846 C   0  0  0  0  0  0  0  0  0  0  0  0
   20.1876   17.2100   21.4896 H   0  0  0  0  0  0  0  0  0  0  0  0
   18.9974   18.3715   20.9187 H   0  0  0  0  0  0  0  0  0  0  0  0
   19.4321   18.5102   23.0467 C   0  0  0  0  0  0  0  0  0  0  0  0
   20.3154   18.4956   23.6999 H   0  0  0  0  0  0  0  0  0  0  0  0
   18.9837   19.5078   23.1349 H   0  0  0  0  0  0  0  0  0  0  0  0
   18.4123   17.4585   23.5323 C   0  0  0  0  0  0  0  0  0  0  0  0
   18.8510   16.4538   23.4581 H   0  0  0  0  0  0  0  0  0  0  0  0
   17.5290   17.4708   22.8788 H   0  0  0  0  0  0  0  0  0  0  0  0
   17.9766   17.7200   24.9880 C   0  0  0  0  0  0  0  0  0  0  0  0
   18.8376   17.6825   25.6682 H   0  0  0  0  0  0  0  0  0  0  0  0
   17.2513   16.9644   25.3168 H   0  0  0  0  0  0  0  0  0  0  0  0
   17.5059   18.7072   25.0853 H   0  0  0  0  0  0  0  0  0  0  0  0
  1  2  1  0  0  0  0
  1  3  2  0  0  0  0
  1  4  1  0  0  0  0
  4  5  1  0  0  0  0
  4  6  1  0  0  0  0
  4  7  1  0  0  0  0
  7  8  1  0  0  0  0
  7  9  1  0  0  0  0
  7 10  1  0  0  0  0
 10 11  1  0  0  0  0
 10 12  1  0  0  0  0
 10 13  1  0  0  0  0
 13 14  1  0  0  0  0
 13 15  1  0  0  0  0
 13 16  1  0  0  0  0
 16 17  1  0  0  0  0
 16 18  1  0  0  0  0
 16 19  1  0  0  0  0
 19 20  1  0  0  0  0
 19 21  1  0  0  0  0
 19 22  1  0  0  0  0
M  END
> <VConfSearch Rank>
154

> <Conf_Id>
8

> <Delta U+W>
1.886

> <U+W>
-51.274

> <U>
11.237

> <W>
-62.510

> <W(PB)>
-64.777

> <W(SA)>
2.267

> <Valence>
9.029

> <Coulomb>
1.667

> <VdW>
0.540

> <VdW6>
-8.825

> <VdW12>
9.365

> <Bond>
0.186

> <Angle>
3.195

> <Pdih>
5.642

> <Idih>
0.007

> <Tether>
0.000

$$$$
VeraChem MOL file


 22 21  0  0  0  0  0  0  0  0999 V2000     
   18.7474   21.5819   23.7625 C   0  0  0  0  0  0  0  0  0  0  0  0
   19.8357   21.6934   24.2916 O   0  5  0  0  0  0  0  0  0  0  0  0
   17.6952   21.7419   24.3494 O   0  0  0  0  0  0  0  0  0  0  0  0
   18.6970   21.2524   22.2731 C   0  0  0  0  0  0  0  0  0  0  0  0
   19.6913   21.4168   21.8430 H   0  0  0  0  0  0  0  0  0  0  0  0
   18.0313   21.9840   21.8005 H   0  0  0  0  0  0  0  0  0  0  0  0
   18.1904   19.8186   21.9561 C   0  0  0  0  0  0  0  0  0  0  0  0
   17.1629   19.7186   22.3325 H   0  0  0  0  0  0  0  0  0  0  0  0
   18.1323   19.6894   20.8669 H   0  0  0  0  0  0  0  0  0  0  0  0
   19.0526   18.6819   22.5587 C   0  0  0  0  0  0  0  0  0  0  0  0
   18.5492   17.7292   22.3515 H   0  0  0  0  0  0  0  0  0  0  0  0
   19.0873   18.7824   23.6521 H   0  0  0  0  0  0  0  0  0  0  0  0
   20.4942   18.6370   21.9955 C   0  0  0  0  0  0  0  0  0  0  0  0
   20.4638   18.5563   20.9005 H   0  0  0  0  0  0  0  0  0  0  0  0
   21.0030   19.5818   22.2267 H   0  0  0  0  0  0  0  0  0  0  0  0
   21.3451   17.4836   22.5766 C   0  0  0  0  0  0  0  0  0  0  0  0
   21.3642   17.5532   23.6730 H   0  0  0  0  0  0  0  0  0  0  0  0
   22.3834   17.6093   22.2400 H   0  0  0  0  0  0  0  0  0  0  0  0
   20.8536   16.0826   22.1515 C   0  0  0  0  0  0  0  0  0  0  0  0
   19.8638   15.8602   22.5686 H   0  0  0  0  0  0  0  0  0  0  0  0
   21.5453   15.3090   22.5094 H   0  0  0  0  0  0  0  0  0  0  0  0
   20.7935   16.0023   21.0583 H   0  0  0  0  0  0  0  0  0  0  0  0
  1  2  1  0  0  0  0
  1  3  2  0  0  0  0
  1  4  1  0  0  0  0
  4  5  1  0  0  0  0
  4  6  1  0  0  0  0
  4  7  1  0  0  0  0
  7  8  1  0  0  0  0
  7  9  1  0  0  0  0
  7 10  1  0  0  0  0
 10 11  1  0  0  0  0
 10 12  1  0  0  0  0
 10 13  1  0  0  0  0
 13 14  1  0  0  0  0
 13 15  1  0  0  0  0
 13 16  1  0  0  0  0
 16 17  1  0  0  0  0
 16 18  1  0  0  0  0
 16 19  1  0  0  0  0
 19 20  1  0  0  0  0
 19 21  1  0  0  0  0
 19 22  1  0  0  0  0
M  END
> <VConfSearch Rank>
155

> <Conf_Id>
93

> <Delta U+W>
1.836

> <U+W>
-51.323

> <U>
10.427

> <W>
-61.751

> <W(PB)>
-63.980

> <W(SA)>
2.230

> <Valence>
8.446

> <Coulomb>
1.306

> <VdW>
0.676

> <VdW6>
-8.928

> <VdW12>
9.604

> <Bond>
0.209

> <Angle>
3.066

> <Pdih>
5.170

> <Idih>
0.001

> <Tether>
0.000

$$$$
VeraChem MOL file


 22 21  0  0  0  0  0  0  0  0999 V2000     
   18.2930   21.8236   21.9838 C   0  0  0  0  0  0  0  0  0  0  0  0
   18.1725   22.7058   22.8111 O   0  5  0  0  0  0  0  0  0  0  0  0
   17.3528   21.2348   21.4877 O   0  0  0  0  0  0  0  0  0  0  0  0
   19.7010   21.4578   21.5224 C   0  0  0  0  0  0  0  0  0  0  0  0
   20.2079   22.3918   21.2531 H   0  0  0  0  0  0  0  0  0  0  0  0
   19.6272   20.8698   20.6007 H   0  0  0  0  0  0  0  0  0  0  0  0
   20.5442   20.7061   22.5888 C   0  0  0  0  0  0  0  0  0  0  0  0
   21.5548   20.5351   22.1942 H   0  0  0  0  0  0  0  0  0  0  0  0
   20.6629   21.3582   23.4652 H   0  0  0  0  0  0  0  0  0  0  0  0
   19.9428   19.3562   23.0522 C   0  0  0  0  0  0  0  0  0  0  0  0
   18.9453   19.5223   23.4814 H   0  0  0  0  0  0  0  0  0  0  0  0
   20.5689   18.9684   23.8656 H   0  0  0  0  0  0  0  0  0  0  0  0
   19.8527   18.3013   21.9223 C   0  0  0  0  0  0  0  0  0  0  0  0
   19.2053   18.6823   21.1219 H   0  0  0  0  0  0  0  0  0  0  0  0
   20.8450   18.1469   21.4772 H   0  0  0  0  0  0  0  0  0  0  0  0
   19.2792   16.9444   22.3933 C   0  0  0  0  0  0  0  0  0  0  0  0
   19.1144   16.3084   21.5126 H   0  0  0  0  0  0  0  0  0  0  0  0
   18.2932   17.0983   22.8532 H   0  0  0  0  0  0  0  0  0  0  0  0
   20.2029   16.1952   23.3784 C   0  0  0  0  0  0  0  0  0  0  0  0
   20.3012   16.7361   24.3276 H   0  0  0  0  0  0  0  0  0  0  0  0
   21.2056   16.0611   22.9521 H   0  0  0  0  0  0  0  0  0  0  0  0
   19.7962   15.2010   23.6043 H   0  0  0  0  0  0  0  0  0  0  0  0
  1  2  1  0  0  0  0
  1  3  2  0  0  0  0
  1  4  1  0  0  0  0
  4  5  1  0  0  0  0
  4  6  1  0  0  0  0
  4  7  1  0  0  0  0
  7  8  1  0  0  0  0
  7  9  1  0  0  0  0
  7 10  1  0  0  0  0
 10 11  1  0  0  0  0
 10 12  1  0  0  0  0
 10 13  1  0  0  0  0
 13 14  1  0  0  0  0
 13 15  1  0  0  0  0
 13 16  1  0  0  0  0
 16 17  1  0  0  0  0
 16 18  1  0  0  0  0
 16 19  1  0  0  0  0
 19 20  1  0  0  0  0
 19 21  1  0  0  0  0
 19 22  1  0  0  0  0
M  END
> <VConfSearch Rank>
156

> <Conf_Id>
70

> <Delta U+W>
1.803

> <U+W>
-51.356

> <U>
10.428

> <W>
-61.784

> <W(PB)>
-64.014

> <W(SA)>
2.230

> <Valence>
8.445

> <Coulomb>
1.306

> <VdW>
0.676

> <VdW6>
-8.929

> <VdW12>
9.605

> <Bond>
0.209

> <Angle>
3.066

> <Pdih>
5.170

> <Idih>
0.001

> <Tether>
0.000

$$$$
VeraChem MOL file


 22 21  0  0  0  0  0  0  0  0999 V2000     
   20.8710   21.8207   21.0238 C   0  0  0  0  0  0  0  0  0  0  0  0
   21.8580   21.4533   20.4173 O   0  5  0  0  0  0  0  0  0  0  0  0
   20.8899   22.6841   21.8788 O   0  0  0  0  0  0  0  0  0  0  0  0
   19.5321   21.1760   20.6762 C   0  0  0  0  0  0  0  0  0  0  0  0
   19.4609   21.1358   19.5829 H   0  0  0  0  0  0  0  0  0  0  0  0
   18.7261   21.8341   21.0227 H   0  0  0  0  0  0  0  0  0  0  0  0
   19.3493   19.7508   21.2598 C   0  0  0  0  0  0  0  0  0  0  0  0
   18.4255   19.3156   20.8556 H   0  0  0  0  0  0  0  0  0  0  0  0
   20.1769   19.1168   20.9153 H   0  0  0  0  0  0  0  0  0  0  0  0
   19.2812   19.7486   22.8058 C   0  0  0  0  0  0  0  0  0  0  0  0
   18.5053   20.4556   23.1298 H   0  0  0  0  0  0  0  0  0  0  0  0
   20.2289   20.1178   23.2216 H   0  0  0  0  0  0  0  0  0  0  0  0
   18.9615   18.3592   23.4064 C   0  0  0  0  0  0  0  0  0  0  0  0
   18.8111   18.4742   24.4885 H   0  0  0  0  0  0  0  0  0  0  0  0
   18.0103   17.9913   22.9980 H   0  0  0  0  0  0  0  0  0  0  0  0
   20.0726   17.3130   23.1630 C   0  0  0  0  0  0  0  0  0  0  0  0
   21.0343   17.7032   23.5239 H   0  0  0  0  0  0  0  0  0  0  0  0
   20.1864   17.1252   22.0874 H   0  0  0  0  0  0  0  0  0  0  0  0
   19.7608   15.9810   23.8745 C   0  0  0  0  0  0  0  0  0  0  0  0
   19.6781   16.1247   24.9598 H   0  0  0  0  0  0  0  0  0  0  0  0
   20.5569   15.2482   23.6896 H   0  0  0  0  0  0  0  0  0  0  0  0
   18.8164   15.5543   23.5120 H   0  0  0  0  0  0  0  0  0  0  0  0
  1  2  1  0  0  0  0
  1  3  2  0  0  0  0
  1  4  1  0  0  0  0
  4  5  1  0  0  0  0
  4  6  1  0  0  0  0
  4  7  1  0  0  0  0
  7  8  1  0  0  0  0
  7  9  1  0  0  0  0
  7 10  1  0  0  0  0
 10 11  1  0  0  0  0
 10 12  1  0  0  0  0
 10 13  1  0  0  0  0
 13 14  1  0  0  0  0
 13 15  1  0  0  0  0
 13 16  1  0  0  0  0
 16 17  1  0  0  0  0
 16 18  1  0  0  0  0
 16 19  1  0  0  0  0
 19 20  1  0  0  0  0
 19 21  1  0  0  0  0
 19 22  1  0  0  0  0
M  END
> <VConfSearch Rank>
157

> <Conf_Id>
85

> <Delta U+W>
0.707

> <U+W>
-52.452

> <U>
8.925

> <W>
-61.378

> <W(PB)>
-63.661

> <W(SA)>
2.283

> <Valence>
7.881

> <Coulomb>
0.349

> <VdW>
0.695

> <VdW6>
-8.049

> <VdW12>
8.743

> <Bond>
0.156

> <Angle>
2.660

> <Pdih>
5.064

> <Idih>
0.001

> <Tether>
0.000

$$$$
VeraChem MOL file


 22 21  0  0  0  0  0  0  0  0999 V2000     
   16.5434   18.6461   22.6181 C   0  0  0  0  0  0  0  0  0  0  0  0
   16.1855   17.5996   23.1217 O   0  5  0  0  0  0  0  0  0  0  0  0
   16.1079   19.7326   22.9448 O   0  0  0  0  0  0  0  0  0  0  0  0
   17.5790   18.5933   21.4983 C   0  0  0  0  0  0  0  0  0  0  0  0
   17.2204   19.2423   20.6908 H   0  0  0  0  0  0  0  0  0  0  0  0
   17.6093   17.5734   21.0960 H   0  0  0  0  0  0  0  0  0  0  0  0
   19.0001   19.0414   21.9288 C   0  0  0  0  0  0  0  0  0  0  0  0
   19.6249   19.1188   21.0301 H   0  0  0  0  0  0  0  0  0  0  0  0
   18.9477   20.0451   22.3727 H   0  0  0  0  0  0  0  0  0  0  0  0
   19.6577   18.0587   22.9253 C   0  0  0  0  0  0  0  0  0  0  0  0
   19.7842   17.0800   22.4428 H   0  0  0  0  0  0  0  0  0  0  0  0
   18.9785   17.8967   23.7735 H   0  0  0  0  0  0  0  0  0  0  0  0
   21.0208   18.5374   23.4852 C   0  0  0  0  0  0  0  0  0  0  0  0
   20.8890   19.4702   24.0504 H   0  0  0  0  0  0  0  0  0  0  0  0
   21.3571   17.7905   24.2172 H   0  0  0  0  0  0  0  0  0  0  0  0
   22.1357   18.7063   22.4229 C   0  0  0  0  0  0  0  0  0  0  0  0
   21.9585   18.0321   21.5737 H   0  0  0  0  0  0  0  0  0  0  0  0
   23.0921   18.3950   22.8652 H   0  0  0  0  0  0  0  0  0  0  0  0
   22.2903   20.1619   21.9287 C   0  0  0  0  0  0  0  0  0  0  0  0
   21.3723   20.5339   21.4598 H   0  0  0  0  0  0  0  0  0  0  0  0
   23.0972   20.2321   21.1879 H   0  0  0  0  0  0  0  0  0  0  0  0
   22.5403   20.8320   22.7615 H   0  0  0  0  0  0  0  0  0  0  0  0
  1  2  1  0  0  0  0
  1  3  2  0  0  0  0
  1  4  1  0  0  0  0
  4  5  1  0  0  0  0
  4  6  1  0  0  0  0
  4  7  1  0  0  0  0
  7  8  1  0  0  0  0
  7  9  1  0  0  0  0
  7 10  1  0  0  0  0
 10 11  1  0  0  0  0
 10 12  1  0  0  0  0
 10 13  1  0  0  0  0
 13 14  1  0  0  0  0
 13 15  1  0  0  0  0
 13 16  1  0  0  0  0
 16 17  1  0  0  0  0
 16 18  1  0  0  0  0
 16 19  1  0  0  0  0
 19 20  1  0  0  0  0
 19 21  1  0  0  0  0
 19 22  1  0  0  0  0
M  END
> <VConfSearch Rank>
158

> <Conf_Id>
82

> <Delta U+W>
3.438

> <U+W>
-49.721

> <U>
11.773

> <W>
-61.495

> <W(PB)>
-63.749

> <W(SA)>
2.254

> <Valence>
10.419

> <Coulomb>
0.565

> <VdW>
0.789

> <VdW6>
-8.847

> <VdW12>
9.636

> <Bond>
0.200

> <Angle>
3.187

> <Pdih>
7.032

> <Idih>
0.001

> <Tether>
0.000

$$$$
VeraChem MOL file


 22 21  0  0  0  0  0  0  0  0999 V2000     
   21.7334   16.1184   22.7146 C   0  0  0  0  0  0  0  0  0  0  0  0
   22.9016   16.3982   22.5304 O   0  5  0  0  0  0  0  0  0  0  0  0
   21.3460   15.4199   23.6306 O   0  0  0  0  0  0  0  0  0  0  0  0
   20.7007   16.6554   21.7274 C   0  0  0  0  0  0  0  0  0  0  0  0
   19.7856   16.0574   21.8167 H   0  0  0  0  0  0  0  0  0  0  0  0
   21.0940   16.4849   20.7183 H   0  0  0  0  0  0  0  0  0  0  0  0
   20.3759   18.1612   21.9078 C   0  0  0  0  0  0  0  0  0  0  0  0
   21.3067   18.7434   21.8631 H   0  0  0  0  0  0  0  0  0  0  0  0
   19.7533   18.4838   21.0638 H   0  0  0  0  0  0  0  0  0  0  0  0
   19.6339   18.4556   23.2321 C   0  0  0  0  0  0  0  0  0  0  0  0
   20.2069   18.0323   24.0684 H   0  0  0  0  0  0  0  0  0  0  0  0
   18.6655   17.9371   23.2307 H   0  0  0  0  0  0  0  0  0  0  0  0
   19.4113   19.9625   23.5154 C   0  0  0  0  0  0  0  0  0  0  0  0
   18.9314   20.0454   24.5001 H   0  0  0  0  0  0  0  0  0  0  0  0
   20.3785   20.4744   23.6113 H   0  0  0  0  0  0  0  0  0  0  0  0
   18.5178   20.6923   22.4815 C   0  0  0  0  0  0  0  0  0  0  0  0
   17.9016   21.4325   23.0104 H   0  0  0  0  0  0  0  0  0  0  0  0
   17.8155   19.9857   22.0182 H   0  0  0  0  0  0  0  0  0  0  0  0
   19.3265   21.4348   21.3944 C   0  0  0  0  0  0  0  0  0  0  0  0
   19.9784   22.1949   21.8442 H   0  0  0  0  0  0  0  0  0  0  0  0
   18.6515   21.9436   20.6942 H   0  0  0  0  0  0  0  0  0  0  0  0
   19.9561   20.7503   20.8146 H   0  0  0  0  0  0  0  0  0  0  0  0
  1  2  1  0  0  0  0
  1  3  2  0  0  0  0
  1  4  1  0  0  0  0
  4  5  1  0  0  0  0
  4  6  1  0  0  0  0
  4  7  1  0  0  0  0
  7  8  1  0  0  0  0
  7  9  1  0  0  0  0
  7 10  1  0  0  0  0
 10 11  1  0  0  0  0
 10 12  1  0  0  0  0
 10 13  1  0  0  0  0
 13 14  1  0  0  0  0
 13 15  1  0  0  0  0
 13 16  1  0  0  0  0
 16 17  1  0  0  0  0
 16 18  1  0  0  0  0
 16 19  1  0  0  0  0
 19 20  1  0  0  0  0
 19 21  1  0  0  0  0
 19 22  1  0  0  0  0
M  END
> <VConfSearch Rank>
159

> <Conf_Id>
94

> <Delta U+W>
3.471

> <U+W>
-49.688

> <U>
11.773

> <W>
-61.461

> <W(PB)>
-63.710

> <W(SA)>
2.248

> <Valence>
10.419

> <Coulomb>
0.566

> <VdW>
0.789

> <VdW6>
-8.847

> <VdW12>
9.636

> <Bond>
0.200

> <Angle>
3.187

> <Pdih>
7.032

> <Idih>
0.001

> <Tether>
0.000

$$$$
VeraChem MOL file


 22 21  0  0  0  0  0  0  0  0999 V2000     
   20.2252   15.7925   22.1271 C   0  0  0  0  0  0  0  0  0  0  0  0
   20.8970   15.1064   21.3824 O   0  5  0  0  0  0  0  0  0  0  0  0
   19.1834   15.4190   22.6289 O   0  0  0  0  0  0  0  0  0  0  0  0
   20.7064   17.2063   22.4331 C   0  0  0  0  0  0  0  0  0  0  0  0
   21.8028   17.2025   22.4257 H   0  0  0  0  0  0  0  0  0  0  0  0
   20.3882   17.4539   23.4522 H   0  0  0  0  0  0  0  0  0  0  0  0
   20.1682   18.2547   21.4254 C   0  0  0  0  0  0  0  0  0  0  0  0
   20.4330   17.9349   20.4081 H   0  0  0  0  0  0  0  0  0  0  0  0
   19.0708   18.2708   21.4626 H   0  0  0  0  0  0  0  0  0  0  0  0
   20.7299   19.6800   21.6570 C   0  0  0  0  0  0  0  0  0  0  0  0
   20.3430   20.3456   20.8742 H   0  0  0  0  0  0  0  0  0  0  0  0
   21.8191   19.6586   21.5170 H   0  0  0  0  0  0  0  0  0  0  0  0
   20.4219   20.2931   23.0485 C   0  0  0  0  0  0  0  0  0  0  0  0
   20.9464   19.7185   23.8231 H   0  0  0  0  0  0  0  0  0  0  0  0
   20.8505   21.3036   23.0881 H   0  0  0  0  0  0  0  0  0  0  0  0
   18.9196   20.3743   23.4150 C   0  0  0  0  0  0  0  0  0  0  0  0
   18.8277   20.7971   24.4248 H   0  0  0  0  0  0  0  0  0  0  0  0
   18.4880   19.3659   23.4675 H   0  0  0  0  0  0  0  0  0  0  0  0
   18.0992   21.2423   22.4365 C   0  0  0  0  0  0  0  0  0  0  0  0
   18.5236   22.2514   22.3562 H   0  0  0  0  0  0  0  0  0  0  0  0
   17.0623   21.3373   22.7837 H   0  0  0  0  0  0  0  0  0  0  0  0
   18.0751   20.7976   21.4337 H   0  0  0  0  0  0  0  0  0  0  0  0
  1  2  1  0  0  0  0
  1  3  2  0  0  0  0
  1  4  1  0  0  0  0
  4  5  1  0  0  0  0
  4  6  1  0  0  0  0
  4  7  1  0  0  0  0
  7  8  1  0  0  0  0
  7  9  1  0  0  0  0
  7 10  1  0  0  0  0
 10 11  1  0  0  0  0
 10 12  1  0  0  0  0
 10 13  1  0  0  0  0
 13 14  1  0  0  0  0
 13 15  1  0  0  0  0
 13 16  1  0  0  0  0
 16 17  1  0  0  0  0
 16 18  1  0  0  0  0
 16 19  1  0  0  0  0
 19 20  1  0  0  0  0
 19 21  1  0  0  0  0
 19 22  1  0  0  0  0
M  END
> <VConfSearch Rank>
160

> <Conf_Id>
56

> <Delta U+W>
0.853

> <U+W>
-52.307

> <U>
8.874

> <W>
-61.181

> <W(PB)>
-63.413

> <W(SA)>
2.232

> <Valence>
8.479

> <Coulomb>
-0.357

> <VdW>
0.753

> <VdW6>
-9.081

> <VdW12>
9.833

> <Bond>
0.221

> <Angle>
3.208

> <Pdih>
5.050

> <Idih>
0.000

> <Tether>
0.000

$$$$
VeraChem MOL file


 22 21  0  0  0  0  0  0  0  0999 V2000     
   22.9851   17.1773   20.3381 C   0  0  0  0  0  0  0  0  0  0  0  0
   23.7351   17.4155   21.2650 O   0  5  0  0  0  0  0  0  0  0  0  0
   23.3369   16.5912   19.3338 O   0  0  0  0  0  0  0  0  0  0  0  0
   21.5240   17.6239   20.4100 C   0  0  0  0  0  0  0  0  0  0  0  0
   20.9022   16.7294   20.2871 H   0  0  0  0  0  0  0  0  0  0  0  0
   21.3357   18.2673   19.5424 H   0  0  0  0  0  0  0  0  0  0  0  0
   21.1217   18.3675   21.7114 C   0  0  0  0  0  0  0  0  0  0  0  0
   21.3187   17.7198   22.5770 H   0  0  0  0  0  0  0  0  0  0  0  0
   21.7524   19.2592   21.8315 H   0  0  0  0  0  0  0  0  0  0  0  0
   19.6340   18.7811   21.7000 C   0  0  0  0  0  0  0  0  0  0  0  0
   19.0054   17.8880   21.5798 H   0  0  0  0  0  0  0  0  0  0  0  0
   19.4394   19.4284   20.8337 H   0  0  0  0  0  0  0  0  0  0  0  0
   19.2359   19.5207   22.9953 C   0  0  0  0  0  0  0  0  0  0  0  0
   19.4304   18.8738   23.8619 H   0  0  0  0  0  0  0  0  0  0  0  0
   19.8642   20.4139   23.1159 H   0  0  0  0  0  0  0  0  0  0  0  0
   17.7494   19.9342   22.9846 C   0  0  0  0  0  0  0  0  0  0  0  0
   17.1176   19.0430   22.8662 H   0  0  0  0  0  0  0  0  0  0  0  0
   17.5515   20.5831   22.1202 H   0  0  0  0  0  0  0  0  0  0  0  0
   17.3559   20.6725   24.2798 C   0  0  0  0  0  0  0  0  0  0  0  0
   17.5142   20.0344   25.1592 H   0  0  0  0  0  0  0  0  0  0  0  0
   16.2965   20.9590   24.2553 H   0  0  0  0  0  0  0  0  0  0  0  0
   17.9513   21.5861   24.4075 H   0  0  0  0  0  0  0  0  0  0  0  0
  1  2  1  0  0  0  0
  1  3  2  0  0  0  0
  1  4  1  0  0  0  0
  4  5  1  0  0  0  0
  4  6  1  0  0  0  0
  4  7  1  0  0  0  0
  7  8  1  0  0  0  0
  7  9  1  0  0  0  0
  7 10  1  0  0  0  0
 10 11  1  0  0  0  0
 10 12  1  0  0  0  0
 10 13  1  0  0  0  0
 13 14  1  0  0  0  0
 13 15  1  0  0  0  0
 13 16  1  0  0  0  0
 16 17  1  0  0  0  0
 16 18  1  0  0  0  0
 16 19  1  0  0  0  0
 19 20  1  0  0  0  0
 19 21  1  0  0  0  0
 19 22  1  0  0  0  0
M  END
> <VConfSearch Rank>
161

> <Conf_Id>
0

> <Delta U+W>
0.000

> <U+W>
-53.159

> <U>
6.763

> <W>
-59.922

> <W(PB)>
-62.256

> <W(SA)>
2.334

> <Valence>
7.600

> <Coulomb>
-2.139

> <VdW>
1.302

> <VdW6>
-6.786

> <VdW12>
8.088

> <Bond>
0.134

> <Angle>
2.720

> <Pdih>
4.746

> <Idih>
0.000

> <Tether>
0.000

$$$$
VeraChem MOL file


 22 21  0  0  0  0  0  0  0  0999 V2000     
   21.1759   20.6793   18.7913 C   0  0  0  0  0  0  0  0  0  0  0  0
   20.3961   20.6453   17.8601 O   0  5  0  0  0  0  0  0  0  0  0  0
   22.3828   20.6253   18.6609 O   0  0  0  0  0  0  0  0  0  0  0  0
   20.6079   20.7721   20.2030 C   0  0  0  0  0  0  0  0  0  0  0  0
   19.6796   21.3544   20.1591 H   0  0  0  0  0  0  0  0  0  0  0  0
   21.3169   21.3383   20.8191 H   0  0  0  0  0  0  0  0  0  0  0  0
   20.3391   19.3846   20.8359 C   0  0  0  0  0  0  0  0  0  0  0  0
   19.6379   18.8257   20.2007 H   0  0  0  0  0  0  0  0  0  0  0  0
   21.2752   18.8095   20.8606 H   0  0  0  0  0  0  0  0  0  0  0  0
   19.7647   19.5057   22.2640 C   0  0  0  0  0  0  0  0  0  0  0  0
   18.8297   20.0821   22.2360 H   0  0  0  0  0  0  0  0  0  0  0  0
   20.4674   20.0660   22.8960 H   0  0  0  0  0  0  0  0  0  0  0  0
   19.4978   18.1211   22.8923 C   0  0  0  0  0  0  0  0  0  0  0  0
   18.7952   17.5604   22.2606 H   0  0  0  0  0  0  0  0  0  0  0  0
   20.4326   17.5443   22.9205 H   0  0  0  0  0  0  0  0  0  0  0  0
   18.9237   18.2412   24.3196 C   0  0  0  0  0  0  0  0  0  0  0  0
   17.9875   18.8159   24.2952 H   0  0  0  0  0  0  0  0  0  0  0  0
   19.6248   18.7998   24.9551 H   0  0  0  0  0  0  0  0  0  0  0  0
   18.6586   16.8564   24.9436 C   0  0  0  0  0  0  0  0  0  0  0  0
   19.5853   16.2713   25.0094 H   0  0  0  0  0  0  0  0  0  0  0  0
   17.9357   16.2875   24.3443 H   0  0  0  0  0  0  0  0  0  0  0  0
   18.2509   16.9606   25.9575 H   0  0  0  0  0  0  0  0  0  0  0  0
  1  2  1  0  0  0  0
  1  3  2  0  0  0  0
  1  4  1  0  0  0  0
  4  5  1  0  0  0  0
  4  6  1  0  0  0  0
  4  7  1  0  0  0  0
  7  8  1  0  0  0  0
  7  9  1  0  0  0  0
  7 10  1  0  0  0  0
 10 11  1  0  0  0  0
 10 12  1  0  0  0  0
 10 13  1  0  0  0  0
 13 14  1  0  0  0  0
 13 15  1  0  0  0  0
 13 16  1  0  0  0  0
 16 17  1  0  0  0  0
 16 18  1  0  0  0  0
 16 19  1  0  0  0  0
 19 20  1  0  0  0  0
 19 21  1  0  0  0  0
 19 22  1  0  0  0  0
M  END
> <VConfSearch Rank>
162

> <Conf_Id>
10

> <Delta U+W>
-1.291

> <U+W>
-54.451

> <U>
5.779

> <W>
-60.230

> <W(PB)>
-62.557

> <W(SA)>
2.328

> <Valence>
7.101

> <Coulomb>
-2.079

> <VdW>
0.757

> <VdW6>
-6.496

> <VdW12>
7.253

> <Bond>
0.100

> <Angle>
2.262

> <Pdih>
4.738

> <Idih>
0.001

> <Tether>
0.000

$$$$
VeraChem MOL file


 22 21  0  0  0  0  0  0  0  0999 V2000     
   19.1564   19.1216   18.3957 C   0  0  0  0  0  0  0  0  0  0  0  0
   18.1278   19.7165   18.1418 O   0  5  0  0  0  0  0  0  0  0  0  0
   20.0963   19.0449   17.6295 O   0  0  0  0  0  0  0  0  0  0  0  0
   19.2828   18.4519   19.7595 C   0  0  0  0  0  0  0  0  0  0  0  0
   19.9078   17.5583   19.6437 H   0  0  0  0  0  0  0  0  0  0  0  0
   18.2861   18.1129   20.0664 H   0  0  0  0  0  0  0  0  0  0  0  0
   19.8839   19.3885   20.8364 C   0  0  0  0  0  0  0  0  0  0  0  0
   20.8755   19.7294   20.5078 H   0  0  0  0  0  0  0  0  0  0  0  0
   19.2538   20.2838   20.9314 H   0  0  0  0  0  0  0  0  0  0  0  0
   20.0013   18.6875   22.2072 C   0  0  0  0  0  0  0  0  0  0  0  0
   20.6333   17.7942   22.1097 H   0  0  0  0  0  0  0  0  0  0  0  0
   19.0071   18.3449   22.5224 H   0  0  0  0  0  0  0  0  0  0  0  0
   20.5983   19.6276   23.2795 C   0  0  0  0  0  0  0  0  0  0  0  0
   21.5599   20.0171   22.9181 H   0  0  0  0  0  0  0  0  0  0  0  0
   19.9418   20.4978   23.4160 H   0  0  0  0  0  0  0  0  0  0  0  0
   20.8303   18.9361   24.6431 C   0  0  0  0  0  0  0  0  0  0  0  0
   21.3610   19.6333   25.3060 H   0  0  0  0  0  0  0  0  0  0  0  0
   21.4918   18.0687   24.5116 H   0  0  0  0  0  0  0  0  0  0  0  0
   19.5226   18.4921   25.3337 C   0  0  0  0  0  0  0  0  0  0  0  0
   19.7338   18.0896   26.3329 H   0  0  0  0  0  0  0  0  0  0  0  0
   19.0133   17.7071   24.7607 H   0  0  0  0  0  0  0  0  0  0  0  0
   18.8323   19.3378   25.4490 H   0  0  0  0  0  0  0  0  0  0  0  0
  1  2  1  0  0  0  0
  1  3  2  0  0  0  0
  1  4  1  0  0  0  0
  4  5  1  0  0  0  0
  4  6  1  0  0  0  0
  4  7  1  0  0  0  0
  7  8  1  0  0  0  0
  7  9  1  0  0  0  0
  7 10  1  0  0  0  0
 10 11  1  0  0  0  0
 10 12  1  0  0  0  0
 10 13  1  0  0  0  0
 13 14  1  0  0  0  0
 13 15  1  0  0  0  0
 13 16  1  0  0  0  0
 16 17  1  0  0  0  0
 16 18  1  0  0  0  0
 16 19  1  0  0  0  0
 19 20  1  0  0  0  0
 19 21  1  0  0  0  0
 19 22  1  0  0  0  0
M  END
> <VConfSearch Rank>
163

> <Conf_Id>
37

> <Delta U+W>
-0.345

> <U+W>
-53.504

> <U>
6.751

> <W>
-60.255

> <W(PB)>
-62.592

> <W(SA)>
2.336

> <Valence>
7.602

> <Coulomb>
-1.744

> <VdW>
0.894

> <VdW6>
-7.110

> <VdW12>
8.004

> <Bond>
0.131

> <Angle>
2.489

> <Pdih>
4.982

> <Idih>
0.001

> <Tether>
0.000

$$$$
VeraChem MOL file


 22 21  0  0  0  0  0  0  0  0999 V2000     
   18.8326   21.1662   19.1258 C   0  0  0  0  0  0  0  0  0  0  0  0
   19.2792   20.7250   18.0854 O   0  5  0  0  0  0  0  0  0  0  0  0
   18.5825   22.3416   19.3060 O   0  0  0  0  0  0  0  0  0  0  0  0
   18.5931   20.1946   20.2759 C   0  0  0  0  0  0  0  0  0  0  0  0
   18.3101   19.2248   19.8493 H   0  0  0  0  0  0  0  0  0  0  0  0
   17.7352   20.5569   20.8550 H   0  0  0  0  0  0  0  0  0  0  0  0
   19.8289   20.0339   21.1952 C   0  0  0  0  0  0  0  0  0  0  0  0
   20.6821   19.6826   20.5984 H   0  0  0  0  0  0  0  0  0  0  0  0
   20.1074   21.0156   21.6031 H   0  0  0  0  0  0  0  0  0  0  0  0
   19.5610   19.0459   22.3512 C   0  0  0  0  0  0  0  0  0  0  0  0
   19.2768   18.0714   21.9330 H   0  0  0  0  0  0  0  0  0  0  0  0
   18.7092   19.4007   22.9473 H   0  0  0  0  0  0  0  0  0  0  0  0
   20.7988   18.8860   23.2636 C   0  0  0  0  0  0  0  0  0  0  0  0
   21.6386   18.4830   22.6812 H   0  0  0  0  0  0  0  0  0  0  0  0
   21.1129   19.8778   23.6169 H   0  0  0  0  0  0  0  0  0  0  0  0
   20.5434   17.9849   24.4941 C   0  0  0  0  0  0  0  0  0  0  0  0
   19.7080   18.3886   25.0828 H   0  0  0  0  0  0  0  0  0  0  0  0
   21.4273   18.0195   25.1458 H   0  0  0  0  0  0  0  0  0  0  0  0
   20.2554   16.5135   24.1251 C   0  0  0  0  0  0  0  0  0  0  0  0
   21.0640   16.0971   23.5102 H   0  0  0  0  0  0  0  0  0  0  0  0
   19.3146   16.4165   23.5690 H   0  0  0  0  0  0  0  0  0  0  0  0
   20.1701   15.9002   25.0314 H   0  0  0  0  0  0  0  0  0  0  0  0
  1  2  1  0  0  0  0
  1  3  2  0  0  0  0
  1  4  1  0  0  0  0
  4  5  1  0  0  0  0
  4  6  1  0  0  0  0
  4  7  1  0  0  0  0
  7  8  1  0  0  0  0
  7  9  1  0  0  0  0
  7 10  1  0  0  0  0
 10 11  1  0  0  0  0
 10 12  1  0  0  0  0
 10 13  1  0  0  0  0
 13 14  1  0  0  0  0
 13 15  1  0  0  0  0
 13 16  1  0  0  0  0
 16 17  1  0  0  0  0
 16 18  1  0  0  0  0
 16 19  1  0  0  0  0
 19 20  1  0  0  0  0
 19 21  1  0  0  0  0
 19 22  1  0  0  0  0
M  END
> <VConfSearch Rank>
164

> <Conf_Id>
38

> <Delta U+W>
-0.439

> <U+W>
-53.598

> <U>
6.751

> <W>
-60.350

> <W(PB)>
-62.659

> <W(SA)>
2.309

> <Valence>
7.602

> <Coulomb>
-1.744

> <VdW>
0.893

> <VdW6>
-7.110

> <VdW12>
8.004

> <Bond>
0.131

> <Angle>
2.489

> <Pdih>
4.981

> <Idih>
0.001

> <Tether>
0.000

$$$$
VeraChem MOL file


 22 21  0  0  0  0  0  0  0  0999 V2000     
   17.3029   16.8140   23.8945 C   0  0  0  0  0  0  0  0  0  0  0  0
   17.0589   16.8474   25.0844 O   0  5  0  0  0  0  0  0  0  0  0  0
   17.0401   15.8668   23.1802 O   0  0  0  0  0  0  0  0  0  0  0  0
   17.9976   18.0179   23.2680 C   0  0  0  0  0  0  0  0  0  0  0  0
   17.6741   18.9159   23.8077 H   0  0  0  0  0  0  0  0  0  0  0  0
   17.6378   18.1100   22.2372 H   0  0  0  0  0  0  0  0  0  0  0  0
   19.5439   17.9019   23.3009 C   0  0  0  0  0  0  0  0  0  0  0  0
   19.8597   17.7131   24.3363 H   0  0  0  0  0  0  0  0  0  0  0  0
   19.8595   17.0266   22.7164 H   0  0  0  0  0  0  0  0  0  0  0  0
   20.2726   19.1659   22.7850 C   0  0  0  0  0  0  0  0  0  0  0  0
   21.3454   19.0425   22.9803 H   0  0  0  0  0  0  0  0  0  0  0  0
   19.9486   20.0402   23.3657 H   0  0  0  0  0  0  0  0  0  0  0  0
   20.0519   19.4301   21.2752 C   0  0  0  0  0  0  0  0  0  0  0  0
   20.3743   18.5550   20.6947 H   0  0  0  0  0  0  0  0  0  0  0  0
   18.9797   19.5567   21.0790 H   0  0  0  0  0  0  0  0  0  0  0  0
   20.7839   20.6910   20.7591 C   0  0  0  0  0  0  0  0  0  0  0  0
   20.4728   21.5670   21.3449 H   0  0  0  0  0  0  0  0  0  0  0  0
   20.4675   20.8820   19.7244 H   0  0  0  0  0  0  0  0  0  0  0  0
   22.3226   20.5640   20.7901 C   0  0  0  0  0  0  0  0  0  0  0  0
   22.6994   20.4935   21.8180 H   0  0  0  0  0  0  0  0  0  0  0  0
   22.7892   21.4425   20.3259 H   0  0  0  0  0  0  0  0  0  0  0  0
   22.6547   19.6746   20.2390 H   0  0  0  0  0  0  0  0  0  0  0  0
  1  2  1  0  0  0  0
  1  3  2  0  0  0  0
  1  4  1  0  0  0  0
  4  5  1  0  0  0  0
  4  6  1  0  0  0  0
  4  7  1  0  0  0  0
  7  8  1  0  0  0  0
  7  9  1  0  0  0  0
  7 10  1  0  0  0  0
 10 11  1  0  0  0  0
 10 12  1  0  0  0  0
 10 13  1  0  0  0  0
 13 14  1  0  0  0  0
 13 15  1  0  0  0  0
 13 16  1  0  0  0  0
 16 17  1  0  0  0  0
 16 18  1  0  0  0  0
 16 19  1  0  0  0  0
 19 20  1  0  0  0  0
 19 21  1  0  0  0  0
 19 22  1  0  0  0  0
M  END
> <VConfSearch Rank>
165

> <Conf_Id>
60

> <Delta U+W>
0.386

> <U+W>
-52.773

> <U>
7.689

> <W>
-60.463

> <W(PB)>
-62.772

> <W(SA)>
2.309

> <Valence>
8.197

> <Coulomb>
-1.561

> <VdW>
1.053

> <VdW6>
-7.737

> <VdW12>
8.790

> <Bond>
0.181

> <Angle>
2.780

> <Pdih>
5.235

> <Idih>
0.001

> <Tether>
0.000

$$$$
VeraChem MOL file


 22 21  0  0  0  0  0  0  0  0999 V2000     
   16.9861   20.6123   24.0201 C   0  0  0  0  0  0  0  0  0  0  0  0
   16.2044   19.7765   24.4287 O   0  5  0  0  0  0  0  0  0  0  0  0
   16.7069   21.7877   23.8899 O   0  0  0  0  0  0  0  0  0  0  0  0
   18.3874   20.1574   23.6280 C   0  0  0  0  0  0  0  0  0  0  0  0
   18.6663   19.3309   24.2911 H   0  0  0  0  0  0  0  0  0  0  0  0
   19.0809   20.9831   23.8269 H   0  0  0  0  0  0  0  0  0  0  0  0
   18.4831   19.7244   22.1418 C   0  0  0  0  0  0  0  0  0  0  0  0
   17.8209   18.8655   21.9656 H   0  0  0  0  0  0  0  0  0  0  0  0
   18.1039   20.5419   21.5130 H   0  0  0  0  0  0  0  0  0  0  0  0
   19.9212   19.3780   21.6872 C   0  0  0  0  0  0  0  0  0  0  0  0
   20.5822   20.2357   21.8722 H   0  0  0  0  0  0  0  0  0  0  0  0
   19.9061   19.2253   20.6006 H   0  0  0  0  0  0  0  0  0  0  0  0
   20.4971   18.1162   22.3758 C   0  0  0  0  0  0  0  0  0  0  0  0
   20.5157   18.2688   23.4623 H   0  0  0  0  0  0  0  0  0  0  0  0
   19.8350   17.2590   22.1923 H   0  0  0  0  0  0  0  0  0  0  0  0
   21.9327   17.7678   21.9179 C   0  0  0  0  0  0  0  0  0  0  0  0
   22.3139   16.9519   22.5473 H   0  0  0  0  0  0  0  0  0  0  0  0
   22.5958   18.6270   22.0891 H   0  0  0  0  0  0  0  0  0  0  0  0
   22.0170   17.3320   20.4388 C   0  0  0  0  0  0  0  0  0  0  0  0
   21.3356   16.4954   20.2362 H   0  0  0  0  0  0  0  0  0  0  0  0
   23.0356   17.0049   20.1931 H   0  0  0  0  0  0  0  0  0  0  0  0
   21.7616   18.1564   19.7617 H   0  0  0  0  0  0  0  0  0  0  0  0
  1  2  1  0  0  0  0
  1  3  2  0  0  0  0
  1  4  1  0  0  0  0
  4  5  1  0  0  0  0
  4  6  1  0  0  0  0
  4  7  1  0  0  0  0
  7  8  1  0  0  0  0
  7  9  1  0  0  0  0
  7 10  1  0  0  0  0
 10 11  1  0  0  0  0
 10 12  1  0  0  0  0
 10 13  1  0  0  0  0
 13 14  1  0  0  0  0
 13 15  1  0  0  0  0
 13 16  1  0  0  0  0
 16 17  1  0  0  0  0
 16 18  1  0  0  0  0
 16 19  1  0  0  0  0
 19 20  1  0  0  0  0
 19 21  1  0  0  0  0
 19 22  1  0  0  0  0
M  END
> <VConfSearch Rank>
166

> <Conf_Id>
28

> <Delta U+W>
0.351

> <U+W>
-52.808

> <U>
7.689

> <W>
-60.498

> <W(PB)>
-62.768

> <W(SA)>
2.270

> <Valence>
8.197

> <Coulomb>
-1.561

> <VdW>
1.053

> <VdW6>
-7.737

> <VdW12>
8.791

> <Bond>
0.181

> <Angle>
2.780

> <Pdih>
5.235

> <Idih>
0.001

> <Tether>
0.000

$$$$
VeraChem MOL file


 22 21  0  0  0  0  0  0  0  0999 V2000     
   23.1577   17.4094   21.1565 C   0  0  0  0  0  0  0  0  0  0  0  0
   24.1134   17.5683   21.8899 O   0  5  0  0  0  0  0  0  0  0  0  0
   22.9086   16.3621   20.5929 O   0  0  0  0  0  0  0  0  0  0  0  0
   22.2075   18.5832   20.9477 C   0  0  0  0  0  0  0  0  0  0  0  0
   21.7991   18.5145   19.9323 H   0  0  0  0  0  0  0  0  0  0  0  0
   22.7933   19.5088   20.9997 H   0  0  0  0  0  0  0  0  0  0  0  0
   21.0577   18.6183   21.9845 C   0  0  0  0  0  0  0  0  0  0  0  0
   20.4996   17.6745   21.9269 H   0  0  0  0  0  0  0  0  0  0  0  0
   21.4831   18.6781   22.9958 H   0  0  0  0  0  0  0  0  0  0  0  0
   20.1076   19.8148   21.7465 C   0  0  0  0  0  0  0  0  0  0  0  0
   19.6417   19.7269   20.7554 H   0  0  0  0  0  0  0  0  0  0  0  0
   20.6974   20.7415   21.7316 H   0  0  0  0  0  0  0  0  0  0  0  0
   19.0073   19.9521   22.8254 C   0  0  0  0  0  0  0  0  0  0  0  0
   19.4729   20.0441   23.8163 H   0  0  0  0  0  0  0  0  0  0  0  0
   18.4630   20.8901   22.6499 H   0  0  0  0  0  0  0  0  0  0  0  0
   17.9990   18.7810   22.8303 C   0  0  0  0  0  0  0  0  0  0  0  0
   18.5101   17.8424   23.0816 H   0  0  0  0  0  0  0  0  0  0  0  0
   17.5721   18.6551   21.8258 H   0  0  0  0  0  0  0  0  0  0  0  0
   16.8614   19.0187   23.8438 C   0  0  0  0  0  0  0  0  0  0  0  0
   16.3021   19.9315   23.6003 H   0  0  0  0  0  0  0  0  0  0  0  0
   17.2583   19.1210   24.8623 H   0  0  0  0  0  0  0  0  0  0  0  0
   16.1560   18.1776   23.8377 H   0  0  0  0  0  0  0  0  0  0  0  0
  1  2  1  0  0  0  0
  1  3  2  0  0  0  0
  1  4  1  0  0  0  0
  4  5  1  0  0  0  0
  4  6  1  0  0  0  0
  4  7  1  0  0  0  0
  7  8  1  0  0  0  0
  7  9  1  0  0  0  0
  7 10  1  0  0  0  0
 10 11  1  0  0  0  0
 10 12  1  0  0  0  0
 10 13  1  0  0  0  0
 13 14  1  0  0  0  0
 13 15  1  0  0  0  0
 13 16  1  0  0  0  0
 16 17  1  0  0  0  0
 16 18  1  0  0  0  0
 16 19  1  0  0  0  0
 19 20  1  0  0  0  0
 19 21  1  0  0  0  0
 19 22  1  0  0  0  0
M  END
> <VConfSearch Rank>
167

> <Conf_Id>
50

> <Delta U+W>
-0.486

> <U+W>
-53.646

> <U>
7.026

> <W>
-60.672

> <W(PB)>
-62.964

> <W(SA)>
2.292

> <Valence>
7.637

> <Coulomb>
-1.488

> <VdW>
0.877

> <VdW6>
-7.165

> <VdW12>
8.043

> <Bond>
0.134

> <Angle>
2.513

> <Pdih>
4.990

> <Idih>
0.001

> <Tether>
0.000

$$$$
VeraChem MOL file


 22 21  0  0  0  0  0  0  0  0999 V2000     
   22.0562   21.9456   22.4399 C   0  0  0  0  0  0  0  0  0  0  0  0
   22.0647   22.5763   23.4784 O   0  5  0  0  0  0  0  0  0  0  0  0
   22.0817   22.4604   21.3396 O   0  0  0  0  0  0  0  0  0  0  0  0
   21.9893   20.4247   22.5218 C   0  0  0  0  0  0  0  0  0  0  0  0
   22.5222   20.1086   23.4266 H   0  0  0  0  0  0  0  0  0  0  0  0
   22.5342   20.0128   21.6638 H   0  0  0  0  0  0  0  0  0  0  0  0
   20.5372   19.8865   22.5402 C   0  0  0  0  0  0  0  0  0  0  0  0
   20.0026   20.3149   23.3993 H   0  0  0  0  0  0  0  0  0  0  0  0
   20.0195   20.2323   21.6358 H   0  0  0  0  0  0  0  0  0  0  0  0
   20.4990   18.3427   22.6190 C   0  0  0  0  0  0  0  0  0  0  0  0
   21.0868   18.0150   23.4874 H   0  0  0  0  0  0  0  0  0  0  0  0
   20.9876   17.9140   21.7333 H   0  0  0  0  0  0  0  0  0  0  0  0
   19.0688   17.7675   22.7506 C   0  0  0  0  0  0  0  0  0  0  0  0
   19.1437   16.6856   22.9260 H   0  0  0  0  0  0  0  0  0  0  0  0
   18.5813   18.1930   23.6384 H   0  0  0  0  0  0  0  0  0  0  0  0
   18.1883   18.0134   21.5046 C   0  0  0  0  0  0  0  0  0  0  0  0
   18.6997   17.6350   20.6088 H   0  0  0  0  0  0  0  0  0  0  0  0
   18.0353   19.0903   21.3557 H   0  0  0  0  0  0  0  0  0  0  0  0
   16.8146   17.3260   21.6386 C   0  0  0  0  0  0  0  0  0  0  0  0
   16.2692   17.7061   22.5124 H   0  0  0  0  0  0  0  0  0  0  0  0
   16.9276   16.2397   21.7507 H   0  0  0  0  0  0  0  0  0  0  0  0
   16.2003   17.5124   20.7482 H   0  0  0  0  0  0  0  0  0  0  0  0
  1  2  1  0  0  0  0
  1  3  2  0  0  0  0
  1  4  1  0  0  0  0
  4  5  1  0  0  0  0
  4  6  1  0  0  0  0
  4  7  1  0  0  0  0
  7  8  1  0  0  0  0
  7  9  1  0  0  0  0
  7 10  1  0  0  0  0
 10 11  1  0  0  0  0
 10 12  1  0  0  0  0
 10 13  1  0  0  0  0
 13 14  1  0  0  0  0
 13 15  1  0  0  0  0
 13 16  1  0  0  0  0
 16 17  1  0  0  0  0
 16 18  1  0  0  0  0
 16 19  1  0  0  0  0
 19 20  1  0  0  0  0
 19 21  1  0  0  0  0
 19 22  1  0  0  0  0
M  END
> <VConfSearch Rank>
168

> <Conf_Id>
51

> <Delta U+W>
-0.517

> <U+W>
-53.677

> <U>
7.026

> <W>
-60.703

> <W(PB)>
-63.007

> <W(SA)>
2.304

> <Valence>
7.638

> <Coulomb>
-1.488

> <VdW>
0.877

> <VdW6>
-7.165

> <VdW12>
8.042

> <Bond>
0.134

> <Angle>
2.513

> <Pdih>
4.990

> <Idih>
0.001

> <Tether>
0.000

$$$$
VeraChem MOL file


 22 21  0  0  0  0  0  0  0  0999 V2000     
   19.8388   19.1444   18.9004 C   0  0  0  0  0  0  0  0  0  0  0  0
   20.9352   19.2392   18.3847 O   0  5  0  0  0  0  0  0  0  0  0  0
   19.0684   18.2311   18.6789 O   0  0  0  0  0  0  0  0  0  0  0  0
   19.4000   20.2436   19.8639 C   0  0  0  0  0  0  0  0  0  0  0  0
   18.3086   20.2054   19.9652 H   0  0  0  0  0  0  0  0  0  0  0  0
   19.6419   21.2053   19.3964 H   0  0  0  0  0  0  0  0  0  0  0  0
   20.0705   20.1632   21.2600 C   0  0  0  0  0  0  0  0  0  0  0  0
   21.1628   20.1742   21.1403 H   0  0  0  0  0  0  0  0  0  0  0  0
   19.8064   21.0614   21.8345 H   0  0  0  0  0  0  0  0  0  0  0  0
   19.6435   18.9076   22.0529 C   0  0  0  0  0  0  0  0  0  0  0  0
   19.9199   18.0040   21.4921 H   0  0  0  0  0  0  0  0  0  0  0  0
   18.5500   18.8946   22.1584 H   0  0  0  0  0  0  0  0  0  0  0  0
   20.2977   18.8641   23.4506 C   0  0  0  0  0  0  0  0  0  0  0  0
   21.3912   18.8771   23.3442 H   0  0  0  0  0  0  0  0  0  0  0  0
   20.0204   19.7654   24.0144 H   0  0  0  0  0  0  0  0  0  0  0  0
   19.8724   17.6101   24.2427 C   0  0  0  0  0  0  0  0  0  0  0  0
   20.1498   16.7063   23.6825 H   0  0  0  0  0  0  0  0  0  0  0  0
   18.7791   17.5945   24.3526 H   0  0  0  0  0  0  0  0  0  0  0  0
   20.5282   17.5697   25.6375 C   0  0  0  0  0  0  0  0  0  0  0  0
   21.6229   17.5527   25.5565 H   0  0  0  0  0  0  0  0  0  0  0  0
   20.2149   16.6722   26.1865 H   0  0  0  0  0  0  0  0  0  0  0  0
   20.2420   18.4475   26.2317 H   0  0  0  0  0  0  0  0  0  0  0  0
  1  2  1  0  0  0  0
  1  3  2  0  0  0  0
  1  4  1  0  0  0  0
  4  5  1  0  0  0  0
  4  6  1  0  0  0  0
  4  7  1  0  0  0  0
  7  8  1  0  0  0  0
  7  9  1  0  0  0  0
  7 10  1  0  0  0  0
 10 11  1  0  0  0  0
 10 12  1  0  0  0  0
 10 13  1  0  0  0  0
 13 14  1  0  0  0  0
 13 15  1  0  0  0  0
 13 16  1  0  0  0  0
 16 17  1  0  0  0  0
 16 18  1  0  0  0  0
 16 19  1  0  0  0  0
 19 20  1  0  0  0  0
 19 21  1  0  0  0  0
 19 22  1  0  0  0  0
M  END
> <VConfSearch Rank>
169

> <Conf_Id>
43

> <Delta U+W>
-0.129

> <U+W>
-53.289

> <U>
7.937

> <W>
-61.225

> <W(PB)>
-63.523

> <W(SA)>
2.297

> <Valence>
7.358

> <Coulomb>
-0.022

> <VdW>
0.601

> <VdW6>
-7.363

> <VdW12>
7.964

> <Bond>
0.121

> <Angle>
2.425

> <Pdih>
4.811

> <Idih>
0.000

> <Tether>
0.000

$$$$
VeraChem MOL file


 22 21  0  0  0  0  0  0  0  0999 V2000     
   21.2566   22.1189   22.9332 C   0  0  0  0  0  0  0  0  0  0  0  0
   20.4729   23.0336   23.0941 O   0  5  0  0  0  0  0  0  0  0  0  0
   22.0688   22.0803   22.0301 O   0  0  0  0  0  0  0  0  0  0  0  0
   21.2299   20.9653   23.9320 C   0  0  0  0  0  0  0  0  0  0  0  0
   21.1839   21.4022   24.9365 H   0  0  0  0  0  0  0  0  0  0  0  0
   22.1805   20.4222   23.8654 H   0  0  0  0  0  0  0  0  0  0  0  0
   20.0407   19.9893   23.7368 C   0  0  0  0  0  0  0  0  0  0  0  0
   20.0218   19.2785   24.5741 H   0  0  0  0  0  0  0  0  0  0  0  0
   19.0976   20.5519   23.7781 H   0  0  0  0  0  0  0  0  0  0  0  0
   20.1258   19.2074   22.4068 C   0  0  0  0  0  0  0  0  0  0  0  0
   21.0759   18.6573   22.3647 H   0  0  0  0  0  0  0  0  0  0  0  0
   20.1279   19.9113   21.5631 H   0  0  0  0  0  0  0  0  0  0  0  0
   18.9498   18.2198   22.2478 C   0  0  0  0  0  0  0  0  0  0  0  0
   18.9473   17.5129   23.0889 H   0  0  0  0  0  0  0  0  0  0  0  0
   18.0002   18.7707   22.2900 H   0  0  0  0  0  0  0  0  0  0  0  0
   19.0338   17.4391   20.9194 C   0  0  0  0  0  0  0  0  0  0  0  0
   19.9819   16.8855   20.8744 H   0  0  0  0  0  0  0  0  0  0  0  0
   19.0348   18.1430   20.0756 H   0  0  0  0  0  0  0  0  0  0  0  0
   17.8575   16.4545   20.7639 C   0  0  0  0  0  0  0  0  0  0  0  0
   17.8509   15.7186   21.5787 H   0  0  0  0  0  0  0  0  0  0  0  0
   17.9331   15.9084   19.8146 H   0  0  0  0  0  0  0  0  0  0  0  0
   16.8967   16.9857   20.7739 H   0  0  0  0  0  0  0  0  0  0  0  0
  1  2  1  0  0  0  0
  1  3  2  0  0  0  0
  1  4  1  0  0  0  0
  4  5  1  0  0  0  0
  4  6  1  0  0  0  0
  4  7  1  0  0  0  0
  7  8  1  0  0  0  0
  7  9  1  0  0  0  0
  7 10  1  0  0  0  0
 10 11  1  0  0  0  0
 10 12  1  0  0  0  0
 10 13  1  0  0  0  0
 13 14  1  0  0  0  0
 13 15  1  0  0  0  0
 13 16  1  0  0  0  0
 16 17  1  0  0  0  0
 16 18  1  0  0  0  0
 16 19  1  0  0  0  0
 19 20  1  0  0  0  0
 19 21  1  0  0  0  0
 19 22  1  0  0  0  0
M  END
> <VConfSearch Rank>
170

> <Conf_Id>
44

> <Delta U+W>
-0.155

> <U+W>
-53.314

> <U>
7.937

> <W>
-61.252

> <W(PB)>
-63.556

> <W(SA)>
2.304

> <Valence>
7.358

> <Coulomb>
-0.021

> <VdW>
0.600

> <VdW6>
-7.363

> <VdW12>
7.964

> <Bond>
0.121

> <Angle>
2.425

> <Pdih>
4.811

> <Idih>
0.001

> <Tether>
0.000

$$$$
VeraChem MOL file


 22 21  0  0  0  0  0  0  0  0999 V2000     
   20.7265   20.1823   19.1119 C   0  0  0  0  0  0  0  0  0  0  0  0
   21.9230   20.3893   19.0625 O   0  5  0  0  0  0  0  0  0  0  0  0
   19.8900   20.9827   18.7424 O   0  0  0  0  0  0  0  0  0  0  0  0
   20.2512   18.8355   19.6500 C   0  0  0  0  0  0  0  0  0  0  0  0
   20.8640   18.0595   19.1763 H   0  0  0  0  0  0  0  0  0  0  0  0
   19.2186   18.6703   19.3192 H   0  0  0  0  0  0  0  0  0  0  0  0
   20.3472   18.7008   21.1921 C   0  0  0  0  0  0  0  0  0  0  0  0
   20.1345   17.6590   21.4637 H   0  0  0  0  0  0  0  0  0  0  0  0
   21.3778   18.9084   21.5120 H   0  0  0  0  0  0  0  0  0  0  0  0
   19.3680   19.6431   21.9326 C   0  0  0  0  0  0  0  0  0  0  0  0
   18.3351   19.4058   21.6434 H   0  0  0  0  0  0  0  0  0  0  0  0
   19.5494   20.6774   21.6096 H   0  0  0  0  0  0  0  0  0  0  0  0
   19.5018   19.5847   23.4729 C   0  0  0  0  0  0  0  0  0  0  0  0
   20.5349   19.8218   23.7616 H   0  0  0  0  0  0  0  0  0  0  0  0
   18.8700   20.3719   23.9065 H   0  0  0  0  0  0  0  0  0  0  0  0
   19.0907   18.2231   24.0777 C   0  0  0  0  0  0  0  0  0  0  0  0
   19.7618   17.4315   23.7196 H   0  0  0  0  0  0  0  0  0  0  0  0
   18.0773   17.9603   23.7443 H   0  0  0  0  0  0  0  0  0  0  0  0
   19.1307   18.2541   25.6188 C   0  0  0  0  0  0  0  0  0  0  0  0
   20.1405   18.4884   25.9805 H   0  0  0  0  0  0  0  0  0  0  0  0
   18.8397   17.2800   26.0329 H   0  0  0  0  0  0  0  0  0  0  0  0
   18.4404   19.0104   26.0151 H   0  0  0  0  0  0  0  0  0  0  0  0
  1  2  1  0  0  0  0
  1  3  2  0  0  0  0
  1  4  1  0  0  0  0
  4  5  1  0  0  0  0
  4  6  1  0  0  0  0
  4  7  1  0  0  0  0
  7  8  1  0  0  0  0
  7  9  1  0  0  0  0
  7 10  1  0  0  0  0
 10 11  1  0  0  0  0
 10 12  1  0  0  0  0
 10 13  1  0  0  0  0
 13 14  1  0  0  0  0
 13 15  1  0  0  0  0
 13 16  1  0  0  0  0
 16 17  1  0  0  0  0
 16 18  1  0  0  0  0
 16 19  1  0  0  0  0
 19 20  1  0  0  0  0
 19 21  1  0  0  0  0
 19 22  1  0  0  0  0
M  END
> <VConfSearch Rank>
171

> <Conf_Id>
53

> <Delta U+W>
0.723

> <U+W>
-52.436

> <U>
8.587

> <W>
-61.022

> <W(PB)>
-63.285

> <W(SA)>
2.263

> <Valence>
7.933

> <Coulomb>
-0.124

> <VdW>
0.778

> <VdW6>
-7.981

> <VdW12>
8.759

> <Bond>
0.160

> <Angle>
2.698

> <Pdih>
5.074

> <Idih>
0.001

> <Tether>
0.000

$$$$
VeraChem MOL file


 22 21  0  0  0  0  0  0  0  0999 V2000     
   17.2300   21.1691   22.4837 C   0  0  0  0  0  0  0  0  0  0  0  0
   16.1794   20.5591   22.4592 O   0  5  0  0  0  0  0  0  0  0  0  0
   17.3050   22.3744   22.6183 O   0  0  0  0  0  0  0  0  0  0  0  0
   18.5265   20.3765   22.3611 C   0  0  0  0  0  0  0  0  0  0  0  0
   19.2700   21.0132   21.8671 H   0  0  0  0  0  0  0  0  0  0  0  0
   18.3317   19.5229   21.7021 H   0  0  0  0  0  0  0  0  0  0  0  0
   19.0632   19.8882   23.7303 C   0  0  0  0  0  0  0  0  0  0  0  0
   19.1181   20.7472   24.4133 H   0  0  0  0  0  0  0  0  0  0  0  0
   18.3404   19.1892   24.1732 H   0  0  0  0  0  0  0  0  0  0  0  0
   20.4600   19.2205   23.6676 C   0  0  0  0  0  0  0  0  0  0  0  0
   20.7500   18.9639   24.6957 H   0  0  0  0  0  0  0  0  0  0  0  0
   21.2090   19.9444   23.3184 H   0  0  0  0  0  0  0  0  0  0  0  0
   20.5207   17.9294   22.8126 C   0  0  0  0  0  0  0  0  0  0  0  0
   21.2095   17.2236   23.2967 H   0  0  0  0  0  0  0  0  0  0  0  0
   19.5382   17.4378   22.8010 H   0  0  0  0  0  0  0  0  0  0  0  0
   21.0185   18.1728   21.3692 C   0  0  0  0  0  0  0  0  0  0  0  0
   22.0255   18.6115   21.3969 H   0  0  0  0  0  0  0  0  0  0  0  0
   20.3750   18.8968   20.8554 H   0  0  0  0  0  0  0  0  0  0  0  0
   21.0566   16.8633   20.5560 C   0  0  0  0  0  0  0  0  0  0  0  0
   21.7262   16.1295   21.0235 H   0  0  0  0  0  0  0  0  0  0  0  0
   21.4184   17.0512   19.5368 H   0  0  0  0  0  0  0  0  0  0  0  0
   20.0560   16.4174   20.4837 H   0  0  0  0  0  0  0  0  0  0  0  0
  1  2  1  0  0  0  0
  1  3  2  0  0  0  0
  1  4  1  0  0  0  0
  4  5  1  0  0  0  0
  4  6  1  0  0  0  0
  4  7  1  0  0  0  0
  7  8  1  0  0  0  0
  7  9  1  0  0  0  0
  7 10  1  0  0  0  0
 10 11  1  0  0  0  0
 10 12  1  0  0  0  0
 10 13  1  0  0  0  0
 13 14  1  0  0  0  0
 13 15  1  0  0  0  0
 13 16  1  0  0  0  0
 16 17  1  0  0  0  0
 16 18  1  0  0  0  0
 16 19  1  0  0  0  0
 19 20  1  0  0  0  0
 19 21  1  0  0  0  0
 19 22  1  0  0  0  0
M  END
> <VConfSearch Rank>
172

> <Conf_Id>
5

> <Delta U+W>
2.167

> <U+W>
-50.993

> <U>
10.045

> <W>
-61.037

> <W(PB)>
-63.303

> <W(SA)>
2.266

> <Valence>
10.100

> <Coulomb>
-0.883

> <VdW>
0.828

> <VdW6>
-8.177

> <VdW12>
9.005

> <Bond>
0.182

> <Angle>
2.988

> <Pdih>
6.930

> <Idih>
0.001

> <Tether>
0.000

$$$$
VeraChem MOL file


 22 21  0  0  0  0  0  0  0  0999 V2000     
   17.5470   16.6078   23.0624 C   0  0  0  0  0  0  0  0  0  0  0  0
   16.5656   17.1653   23.5126 O   0  5  0  0  0  0  0  0  0  0  0  0
   17.6548   15.4005   22.9772 O   0  0  0  0  0  0  0  0  0  0  0  0
   18.7166   17.4694   22.6000 C   0  0  0  0  0  0  0  0  0  0  0  0
   18.3027   18.3989   22.1933 H   0  0  0  0  0  0  0  0  0  0  0  0
   19.2227   16.9459   21.7803 H   0  0  0  0  0  0  0  0  0  0  0  0
   19.7204   17.7798   23.7389 C   0  0  0  0  0  0  0  0  0  0  0  0
   19.2155   18.3734   24.5136 H   0  0  0  0  0  0  0  0  0  0  0  0
   20.0127   16.8350   24.2176 H   0  0  0  0  0  0  0  0  0  0  0  0
   21.0041   18.5140   23.2765 C   0  0  0  0  0  0  0  0  0  0  0  0
   21.5674   17.8836   22.5748 H   0  0  0  0  0  0  0  0  0  0  0  0
   21.6516   18.6331   24.1560 H   0  0  0  0  0  0  0  0  0  0  0  0
   20.7607   19.9162   22.6631 C   0  0  0  0  0  0  0  0  0  0  0  0
   19.8463   20.3580   23.0823 H   0  0  0  0  0  0  0  0  0  0  0  0
   21.5852   20.5762   22.9656 H   0  0  0  0  0  0  0  0  0  0  0  0
   20.6952   19.9066   21.1183 C   0  0  0  0  0  0  0  0  0  0  0  0
   19.9019   19.2349   20.7693 H   0  0  0  0  0  0  0  0  0  0  0  0
   21.6387   19.5158   20.7130 H   0  0  0  0  0  0  0  0  0  0  0  0
   20.4461   21.3199   20.5544 C   0  0  0  0  0  0  0  0  0  0  0  0
   19.4922   21.7244   20.9173 H   0  0  0  0  0  0  0  0  0  0  0  0
   20.4094   21.2977   19.4575 H   0  0  0  0  0  0  0  0  0  0  0  0
   21.2469   22.0091   20.8529 H   0  0  0  0  0  0  0  0  0  0  0  0
  1  2  1  0  0  0  0
  1  3  2  0  0  0  0
  1  4  1  0  0  0  0
  4  5  1  0  0  0  0
  4  6  1  0  0  0  0
  4  7  1  0  0  0  0
  7  8  1  0  0  0  0
  7  9  1  0  0  0  0
  7 10  1  0  0  0  0
 10 11  1  0  0  0  0
 10 12  1  0  0  0  0
 10 13  1  0  0  0  0
 13 14  1  0  0  0  0
 13 15  1  0  0  0  0
 13 16  1  0  0  0  0
 16 17  1  0  0  0  0
 16 18  1  0  0  0  0
 16 19  1  0  0  0  0
 19 20  1  0  0  0  0
 19 21  1  0  0  0  0
 19 22  1  0  0  0  0
M  END
> <VConfSearch Rank>
173

> <Conf_Id>
6

> <Delta U+W>
2.118

> <U+W>
-51.042

> <U>
10.045

> <W>
-61.086

> <W(PB)>
-63.356

> <W(SA)>
2.270

> <Valence>
10.100

> <Coulomb>
-0.883

> <VdW>
0.828

> <VdW6>
-8.177

> <VdW12>
9.004

> <Bond>
0.182

> <Angle>
2.988

> <Pdih>
6.930

> <Idih>
0.001

> <Tether>
0.000

$$$$
VeraChem MOL file


 22 21  0  0  0  0  0  0  0  0999 V2000     
   19.9678   17.6955   20.2413 C   0  0  0  0  0  0  0  0  0  0  0  0
   18.9075   17.7786   19.6527 O   0  5  0  0  0  0  0  0  0  0  0  0
   20.3958   16.6581   20.7080 O   0  0  0  0  0  0  0  0  0  0  0  0
   20.8426   18.9439   20.3392 C   0  0  0  0  0  0  0  0  0  0  0  0
   21.1100   19.2141   19.3111 H   0  0  0  0  0  0  0  0  0  0  0  0
   21.7785   18.6845   20.8489 H   0  0  0  0  0  0  0  0  0  0  0  0
   20.1766   20.1689   21.0269 C   0  0  0  0  0  0  0  0  0  0  0  0
   20.7238   21.0698   20.7180 H   0  0  0  0  0  0  0  0  0  0  0  0
   19.1508   20.2960   20.6541 H   0  0  0  0  0  0  0  0  0  0  0  0
   20.1775   20.1246   22.5751 C   0  0  0  0  0  0  0  0  0  0  0  0
   19.8289   21.0985   22.9451 H   0  0  0  0  0  0  0  0  0  0  0  0
   21.2065   20.0059   22.9410 H   0  0  0  0  0  0  0  0  0  0  0  0
   19.2821   19.0167   23.1745 C   0  0  0  0  0  0  0  0  0  0  0  0
   18.2788   19.0724   22.7303 H   0  0  0  0  0  0  0  0  0  0  0  0
   19.6906   18.0299   22.9227 H   0  0  0  0  0  0  0  0  0  0  0  0
   19.1755   19.1374   24.7094 C   0  0  0  0  0  0  0  0  0  0  0  0
   18.7590   20.1184   24.9768 H   0  0  0  0  0  0  0  0  0  0  0  0
   20.1785   19.0835   25.1550 H   0  0  0  0  0  0  0  0  0  0  0  0
   18.2893   18.0257   25.3062 C   0  0  0  0  0  0  0  0  0  0  0  0
   17.2704   18.0757   24.9003 H   0  0  0  0  0  0  0  0  0  0  0  0
   18.2252   18.1256   26.3975 H   0  0  0  0  0  0  0  0  0  0  0  0
   18.6998   17.0328   25.0798 H   0  0  0  0  0  0  0  0  0  0  0  0
  1  2  1  0  0  0  0
  1  3  2  0  0  0  0
  1  4  1  0  0  0  0
  4  5  1  0  0  0  0
  4  6  1  0  0  0  0
  4  7  1  0  0  0  0
  7  8  1  0  0  0  0
  7  9  1  0  0  0  0
  7 10  1  0  0  0  0
 10 11  1  0  0  0  0
 10 12  1  0  0  0  0
 10 13  1  0  0  0  0
 13 14  1  0  0  0  0
 13 15  1  0  0  0  0
 13 16  1  0  0  0  0
 16 17  1  0  0  0  0
 16 18  1  0  0  0  0
 16 19  1  0  0  0  0
 19 20  1  0  0  0  0
 19 21  1  0  0  0  0
 19 22  1  0  0  0  0
M  END
> <VConfSearch Rank>
174

> <Conf_Id>
8

> <Delta U+W>
1.886

> <U+W>
-51.274

> <U>
11.237

> <W>
-62.510

> <W(PB)>
-64.777

> <W(SA)>
2.267

> <Valence>
9.029

> <Coulomb>
1.667

> <VdW>
0.540

> <VdW6>
-8.825

> <VdW12>
9.365

> <Bond>
0.186

> <Angle>
3.195

> <Pdih>
5.642

> <Idih>
0.007

> <Tether>
0.000

$$$$
VeraChem MOL file


 22 21  0  0  0  0  0  0  0  0999 V2000     
   20.5108   21.4891   20.9084 C   0  0  0  0  0  0  0  0  0  0  0  0
   20.8386   20.7984   19.9638 O   0  5  0  0  0  0  0  0  0  0  0  0
   21.1961   22.3892   21.3527 O   0  0  0  0  0  0  0  0  0  0  0  0
   19.1519   21.2340   21.5546 C   0  0  0  0  0  0  0  0  0  0  0  0
   18.5560   20.6054   20.8834 H   0  0  0  0  0  0  0  0  0  0  0  0
   18.6342   22.1984   21.6150 H   0  0  0  0  0  0  0  0  0  0  0  0
   19.2304   20.6047   22.9727 C   0  0  0  0  0  0  0  0  0  0  0  0
   19.7654   21.2992   23.6352 H   0  0  0  0  0  0  0  0  0  0  0  0
   18.2156   20.5103   23.3819 H   0  0  0  0  0  0  0  0  0  0  0  0
   19.9327   19.2254   23.0282 C   0  0  0  0  0  0  0  0  0  0  0  0
   20.0126   18.9287   24.0816 H   0  0  0  0  0  0  0  0  0  0  0  0
   20.9614   19.3175   22.6535 H   0  0  0  0  0  0  0  0  0  0  0  0
   19.1885   18.1225   22.2363 C   0  0  0  0  0  0  0  0  0  0  0  0
   18.1534   18.0409   22.5947 H   0  0  0  0  0  0  0  0  0  0  0  0
   19.1327   18.4111   21.1787 H   0  0  0  0  0  0  0  0  0  0  0  0
   19.8753   16.7391   22.3167 C   0  0  0  0  0  0  0  0  0  0  0  0
   20.9158   16.8213   21.9732 H   0  0  0  0  0  0  0  0  0  0  0  0
   19.3717   16.0561   21.6188 H   0  0  0  0  0  0  0  0  0  0  0  0
   19.8402   16.1166   23.7295 C   0  0  0  0  0  0  0  0  0  0  0  0
   20.4355   16.7016   24.4415 H   0  0  0  0  0  0  0  0  0  0  0  0
   20.2524   15.0994   23.7104 H   0  0  0  0  0  0  0  0  0  0  0  0
   18.8112   16.0569   24.1072 H   0  0  0  0  0  0  0  0  0  0  0  0
  1  2  1  0  0  0  0
  1  3  2  0  0  0  0
  1  4  1  0  0  0  0
  4  5  1  0  0  0  0
  4  6  1  0  0  0  0
  4  7  1  0  0  0  0
  7  8  1  0  0  0  0
  7  9  1  0  0  0  0
  7 10  1  0  0  0  0
 10 11  1  0  0  0  0
 10 12  1  0  0  0  0
 10 13  1  0  0  0  0
 13 14  1  0  0  0  0
 13 15  1  0  0  0  0
 13 16  1  0  0  0  0
 16 17  1  0  0  0  0
 16 18  1  0  0  0  0
 16 19  1  0  0  0  0
 19 20  1  0  0  0  0
 19 21  1  0  0  0  0
 19 22  1  0  0  0  0
M  END
> <VConfSearch Rank>
175

> <Conf_Id>
93

> <Delta U+W>
1.836

> <U+W>
-51.323

> <U>
10.427

> <W>
-61.751

> <W(PB)>
-63.980

> <W(SA)>
2.230

> <Valence>
8.446

> <Coulomb>
1.306

> <VdW>
0.676

> <VdW6>
-8.928

> <VdW12>
9.604

> <Bond>
0.209

> <Angle>
3.066

> <Pdih>
5.170

> <Idih>
0.001

> <Tether>
0.000

$$$$
VeraChem MOL file


 22 21  0  0  0  0  0  0  0  0999 V2000     
   18.6733   21.6698   23.8471 C   0  0  0  0  0  0  0  0  0  0  0  0
   17.6446   21.7506   24.4894 O   0  5  0  0  0  0  0  0  0  0  0  0
   18.8818   22.3014   22.8300 O   0  0  0  0  0  0  0  0  0  0  0  0
   19.7733   20.7470   24.3643 C   0  0  0  0  0  0  0  0  0  0  0  0
   19.9279   20.9866   25.4227 H   0  0  0  0  0  0  0  0  0  0  0  0
   20.7096   20.9945   23.8517 H   0  0  0  0  0  0  0  0  0  0  0  0
   19.4521   19.2337   24.2231 C   0  0  0  0  0  0  0  0  0  0  0  0
   20.2674   18.6489   24.6698 H   0  0  0  0  0  0  0  0  0  0  0  0
   18.5535   19.0094   24.8143 H   0  0  0  0  0  0  0  0  0  0  0  0
   19.2206   18.7565   22.7679 C   0  0  0  0  0  0  0  0  0  0  0  0
   18.3828   19.3116   22.3243 H   0  0  0  0  0  0  0  0  0  0  0  0
   18.9111   17.7044   22.8021 H   0  0  0  0  0  0  0  0  0  0  0  0
   20.4718   18.8974   21.8668 C   0  0  0  0  0  0  0  0  0  0  0  0
   20.7635   19.9544   21.8145 H   0  0  0  0  0  0  0  0  0  0  0  0
   21.3174   18.3600   22.3170 H   0  0  0  0  0  0  0  0  0  0  0  0
   20.2479   18.3934   20.4218 C   0  0  0  0  0  0  0  0  0  0  0  0
   21.1257   18.6600   19.8171 H   0  0  0  0  0  0  0  0  0  0  0  0
   19.3926   18.9185   19.9745 H   0  0  0  0  0  0  0  0  0  0  0  0
   20.0291   16.8675   20.3300 C   0  0  0  0  0  0  0  0  0  0  0  0
   19.0942   16.5654   20.8178 H   0  0  0  0  0  0  0  0  0  0  0  0
   20.8567   16.3227   20.8026 H   0  0  0  0  0  0  0  0  0  0  0  0
   19.9723   16.5510   19.2804 H   0  0  0  0  0  0  0  0  0  0  0  0
  1  2  1  0  0  0  0
  1  3  2  0  0  0  0
  1  4  1  0  0  0  0
  4  5  1  0  0  0  0
  4  6  1  0  0  0  0
  4  7  1  0  0  0  0
  7  8  1  0  0  0  0
  7  9  1  0  0  0  0
  7 10  1  0  0  0  0
 10 11  1  0  0  0  0
 10 12  1  0  0  0  0
 10 13  1  0  0  0  0
 13 14  1  0  0  0  0
 13 15  1  0  0  0  0
 13 16  1  0  0  0  0
 16 17  1  0  0  0  0
 16 18  1  0  0  0  0
 16 19  1  0  0  0  0
 19 20  1  0  0  0  0
 19 21  1  0  0  0  0
 19 22  1  0  0  0  0
M  END
> <VConfSearch Rank>
176

> <Conf_Id>
70

> <Delta U+W>
1.803

> <U+W>
-51.356

> <U>
10.428

> <W>
-61.784

> <W(PB)>
-64.014

> <W(SA)>
2.230

> <Valence>
8.445

> <Coulomb>
1.306

> <VdW>
0.676

> <VdW6>
-8.929

> <VdW12>
9.605

> <Bond>
0.209

> <Angle>
3.066

> <Pdih>
5.170

> <Idih>
0.001

> <Tether>
0.000

$$$$
VeraChem MOL file


 22 21  0  0  0  0  0  0  0  0999 V2000     
   18.6997   21.2474   24.6549 C   0  0  0  0  0  0  0  0  0  0  0  0
   17.5207   20.9968   24.8102 O   0  5  0  0  0  0  0  0  0  0  0  0
   19.1172   22.3405   24.3266 O   0  0  0  0  0  0  0  0  0  0  0  0
   19.7110   20.1325   24.9068 C   0  0  0  0  0  0  0  0  0  0  0  0
   19.4246   19.6341   25.8405 H   0  0  0  0  0  0  0  0  0  0  0  0
   20.6954   20.5848   25.0777 H   0  0  0  0  0  0  0  0  0  0  0  0
   19.7921   19.0862   23.7650 C   0  0  0  0  0  0  0  0  0  0  0  0
   20.4398   18.2588   24.0846 H   0  0  0  0  0  0  0  0  0  0  0  0
   18.7928   18.6622   23.5998 H   0  0  0  0  0  0  0  0  0  0  0  0
   20.3427   19.6872   22.4496 C   0  0  0  0  0  0  0  0  0  0  0  0
   21.3014   20.1819   22.6571 H   0  0  0  0  0  0  0  0  0  0  0  0
   19.6638   20.4701   22.0841 H   0  0  0  0  0  0  0  0  0  0  0  0
   20.5632   18.6355   21.3367 C   0  0  0  0  0  0  0  0  0  0  0  0
   21.0665   19.1241   20.4911 H   0  0  0  0  0  0  0  0  0  0  0  0
   21.2479   17.8557   21.6971 H   0  0  0  0  0  0  0  0  0  0  0  0
   19.2534   17.9874   20.8340 C   0  0  0  0  0  0  0  0  0  0  0  0
   18.5483   18.7705   20.5229 H   0  0  0  0  0  0  0  0  0  0  0  0
   18.7723   17.4273   21.6466 H   0  0  0  0  0  0  0  0  0  0  0  0
   19.5127   17.0322   19.6516 C   0  0  0  0  0  0  0  0  0  0  0  0
   19.9594   17.5680   18.8038 H   0  0  0  0  0  0  0  0  0  0  0  0
   18.5740   16.5780   19.3084 H   0  0  0  0  0  0  0  0  0  0  0  0
   20.1943   16.2226   19.9434 H   0  0  0  0  0  0  0  0  0  0  0  0
  1  2  1  0  0  0  0
  1  3  2  0  0  0  0
  1  4  1  0  0  0  0
  4  5  1  0  0  0  0
  4  6  1  0  0  0  0
  4  7  1  0  0  0  0
  7  8  1  0  0  0  0
  7  9  1  0  0  0  0
  7 10  1  0  0  0  0
 10 11  1  0  0  0  0
 10 12  1  0  0  0  0
 10 13  1  0  0  0  0
 13 14  1  0  0  0  0
 13 15  1  0  0  0  0
 13 16  1  0  0  0  0
 16 17  1  0  0  0  0
 16 18  1  0  0  0  0
 16 19  1  0  0  0  0
 19 20  1  0  0  0  0
 19 21  1  0  0  0  0
 19 22  1  0  0  0  0
M  END
> <VConfSearch Rank>
177

> <Conf_Id>
85

> <Delta U+W>
0.707

> <U+W>
-52.452

> <U>
8.925

> <W>
-61.378

> <W(PB)>
-63.661

> <W(SA)>
2.283

> <Valence>
7.881

> <Coulomb>
0.349

> <VdW>
0.695

> <VdW6>
-8.049

> <VdW12>
8.743

> <Bond>
0.156

> <Angle>
2.660

> <Pdih>
5.064

> <Idih>
0.001

> <Tether>
0.000

$$$$
VeraChem MOL file


 22 21  0  0  0  0  0  0  0  0999 V2000     
   21.6435   19.1530   19.5733 C   0  0  0  0  0  0  0  0  0  0  0  0
   22.7511   19.6134   19.7685 O   0  5  0  0  0  0  0  0  0  0  0  0
   21.4355   18.1680   18.8925 O   0  0  0  0  0  0  0  0  0  0  0  0
   20.4448   19.8625   20.1971 C   0  0  0  0  0  0  0  0  0  0  0  0
   19.6788   19.9557   19.4183 H   0  0  0  0  0  0  0  0  0  0  0  0
   20.7438   20.8813   20.4718 H   0  0  0  0  0  0  0  0  0  0  0  0
   19.8454   19.1307   21.4263 C   0  0  0  0  0  0  0  0  0  0  0  0
   18.9067   19.6281   21.7006 H   0  0  0  0  0  0  0  0  0  0  0  0
   19.5941   18.0975   21.1494 H   0  0  0  0  0  0  0  0  0  0  0  0
   20.7993   19.1323   22.6433 C   0  0  0  0  0  0  0  0  0  0  0  0
   20.9767   20.1671   22.9664 H   0  0  0  0  0  0  0  0  0  0  0  0
   21.7766   18.7354   22.3363 H   0  0  0  0  0  0  0  0  0  0  0  0
   20.2969   18.2957   23.8467 C   0  0  0  0  0  0  0  0  0  0  0  0
   20.2049   17.2396   23.5587 H   0  0  0  0  0  0  0  0  0  0  0  0
   21.0776   18.3270   24.6189 H   0  0  0  0  0  0  0  0  0  0  0  0
   18.9743   18.7969   24.4788 C   0  0  0  0  0  0  0  0  0  0  0  0
   18.8611   19.8781   24.3192 H   0  0  0  0  0  0  0  0  0  0  0  0
   19.0285   18.6531   25.5668 H   0  0  0  0  0  0  0  0  0  0  0  0
   17.7282   18.0451   23.9600 C   0  0  0  0  0  0  0  0  0  0  0  0
   17.6037   18.1591   22.8773 H   0  0  0  0  0  0  0  0  0  0  0  0
   16.8202   18.4274   24.4440 H   0  0  0  0  0  0  0  0  0  0  0  0
   17.7999   16.9723   24.1812 H   0  0  0  0  0  0  0  0  0  0  0  0
  1  2  1  0  0  0  0
  1  3  2  0  0  0  0
  1  4  1  0  0  0  0
  4  5  1  0  0  0  0
  4  6  1  0  0  0  0
  4  7  1  0  0  0  0
  7  8  1  0  0  0  0
  7  9  1  0  0  0  0
  7 10  1  0  0  0  0
 10 11  1  0  0  0  0
 10 12  1  0  0  0  0
 10 13  1  0  0  0  0
 13 14  1  0  0  0  0
 13 15  1  0  0  0  0
 13 16  1  0  0  0  0
 16 17  1  0  0  0  0
 16 18  1  0  0  0  0
 16 19  1  0  0  0  0
 19 20  1  0  0  0  0
 19 21  1  0  0  0  0
 19 22  1  0  0  0  0
M  END
> <VConfSearch Rank>
178

> <Conf_Id>
82

> <Delta U+W>
3.438

> <U+W>
-49.721

> <U>
11.773

> <W>
-61.495

> <W(PB)>
-63.749

> <W(SA)>
2.254

> <Valence>
10.419

> <Coulomb>
0.565

> <VdW>
0.789

> <VdW6>
-8.847

> <VdW12>
9.636

> <Bond>
0.200

> <Angle>
3.187

> <Pdih>
7.032

> <Idih>
0.001

> <Tether>
0.000

$$$$
VeraChem MOL file


 22 21  0  0  0  0  0  0  0  0999 V2000     
   18.0562   19.6970   19.7347 C   0  0  0  0  0  0  0  0  0  0  0  0
   18.7945   20.0746   18.8462 O   0  5  0  0  0  0  0  0  0  0  0  0
   17.1407   18.9167   19.5616 O   0  0  0  0  0  0  0  0  0  0  0  0
   18.2781   20.2521   21.1390 C   0  0  0  0  0  0  0  0  0  0  0  0
   17.3632   20.1013   21.7246 H   0  0  0  0  0  0  0  0  0  0  0  0
   18.4190   21.3352   21.0436 H   0  0  0  0  0  0  0  0  0  0  0  0
   19.4946   19.6360   21.8782 C   0  0  0  0  0  0  0  0  0  0  0  0
   20.3951   19.7523   21.2594 H   0  0  0  0  0  0  0  0  0  0  0  0
   19.6622   20.2050   22.8012 H   0  0  0  0  0  0  0  0  0  0  0  0
   19.2853   18.1444   22.2280 C   0  0  0  0  0  0  0  0  0  0  0  0
   19.0077   17.5958   21.3176 H   0  0  0  0  0  0  0  0  0  0  0  0
   18.4345   18.0469   22.9159 H   0  0  0  0  0  0  0  0  0  0  0  0
   20.5283   17.4551   22.8448 C   0  0  0  0  0  0  0  0  0  0  0  0
   20.2773   16.3962   22.9954 H   0  0  0  0  0  0  0  0  0  0  0  0
   21.3595   17.4650   22.1265 H   0  0  0  0  0  0  0  0  0  0  0  0
   20.9867   18.0392   24.2045 C   0  0  0  0  0  0  0  0  0  0  0  0
   21.3438   17.2155   24.8379 H   0  0  0  0  0  0  0  0  0  0  0  0
   20.1339   18.4846   24.7351 H   0  0  0  0  0  0  0  0  0  0  0  0
   22.1314   19.0681   24.0703 C   0  0  0  0  0  0  0  0  0  0  0  0
   23.0149   18.6103   23.6066 H   0  0  0  0  0  0  0  0  0  0  0  0
   22.4277   19.4437   25.0582 H   0  0  0  0  0  0  0  0  0  0  0  0
   21.8374   19.9290   23.4593 H   0  0  0  0  0  0  0  0  0  0  0  0
  1  2  1  0  0  0  0
  1  3  2  0  0  0  0
  1  4  1  0  0  0  0
  4  5  1  0  0  0  0
  4  6  1  0  0  0  0
  4  7  1  0  0  0  0
  7  8  1  0  0  0  0
  7  9  1  0  0  0  0
  7 10  1  0  0  0  0
 10 11  1  0  0  0  0
 10 12  1  0  0  0  0
 10 13  1  0  0  0  0
 13 14  1  0  0  0  0
 13 15  1  0  0  0  0
 13 16  1  0  0  0  0
 16 17  1  0  0  0  0
 16 18  1  0  0  0  0
 16 19  1  0  0  0  0
 19 20  1  0  0  0  0
 19 21  1  0  0  0  0
 19 22  1  0  0  0  0
M  END
> <VConfSearch Rank>
179

> <Conf_Id>
94

> <Delta U+W>
3.471

> <U+W>
-49.688

> <U>
11.773

> <W>
-61.461

> <W(PB)>
-63.710

> <W(SA)>
2.248

> <Valence>
10.419

> <Coulomb>
0.566

> <VdW>
0.789

> <VdW6>
-8.847

> <VdW12>
9.636

> <Bond>
0.200

> <Angle>
3.187

> <Pdih>
7.032

> <Idih>
0.001

> <Tether>
0.000

$$$$
VeraChem MOL file


 22 21  0  0  0  0  0  0  0  0999 V2000     
   19.9499   17.2324   19.6089 C   0  0  0  0  0  0  0  0  0  0  0  0
   19.0908   16.6544   18.9729 O   0  5  0  0  0  0  0  0  0  0  0  0
   21.1078   16.8677   19.6613 O   0  0  0  0  0  0  0  0  0  0  0  0
   19.5482   18.4721   20.3999 C   0  0  0  0  0  0  0  0  0  0  0  0
   18.7443   18.9797   19.8536 H   0  0  0  0  0  0  0  0  0  0  0  0
   20.4090   19.1502   20.4174 H   0  0  0  0  0  0  0  0  0  0  0  0
   19.0877   18.1402   21.8429 C   0  0  0  0  0  0  0  0  0  0  0  0
   18.2800   17.3971   21.7935 H   0  0  0  0  0  0  0  0  0  0  0  0
   19.9097   17.6594   22.3896 H   0  0  0  0  0  0  0  0  0  0  0  0
   18.5761   19.3742   22.6277 C   0  0  0  0  0  0  0  0  0  0  0  0
   18.2223   19.0461   23.6139 H   0  0  0  0  0  0  0  0  0  0  0  0
   17.6930   19.7791   22.1150 H   0  0  0  0  0  0  0  0  0  0  0  0
   19.6100   20.5168   22.8089 C   0  0  0  0  0  0  0  0  0  0  0  0
   19.8418   20.9560   21.8299 H   0  0  0  0  0  0  0  0  0  0  0  0
   19.1428   21.3221   23.3918 H   0  0  0  0  0  0  0  0  0  0  0  0
   20.9332   20.1047   23.4999 C   0  0  0  0  0  0  0  0  0  0  0  0
   21.5914   20.9829   23.5481 H   0  0  0  0  0  0  0  0  0  0  0  0
   21.4629   19.3611   22.8895 H   0  0  0  0  0  0  0  0  0  0  0  0
   20.7300   19.5569   24.9290 C   0  0  0  0  0  0  0  0  0  0  0  0
   20.1870   20.2787   25.5528 H   0  0  0  0  0  0  0  0  0  0  0  0
   21.6985   19.3582   25.4057 H   0  0  0  0  0  0  0  0  0  0  0  0
   20.1648   18.6164   24.9186 H   0  0  0  0  0  0  0  0  0  0  0  0
  1  2  1  0  0  0  0
  1  3  2  0  0  0  0
  1  4  1  0  0  0  0
  4  5  1  0  0  0  0
  4  6  1  0  0  0  0
  4  7  1  0  0  0  0
  7  8  1  0  0  0  0
  7  9  1  0  0  0  0
  7 10  1  0  0  0  0
 10 11  1  0  0  0  0
 10 12  1  0  0  0  0
 10 13  1  0  0  0  0
 13 14  1  0  0  0  0
 13 15  1  0  0  0  0
 13 16  1  0  0  0  0
 16 17  1  0  0  0  0
 16 18  1  0  0  0  0
 16 19  1  0  0  0  0
 19 20  1  0  0  0  0
 19 21  1  0  0  0  0
 19 22  1  0  0  0  0
M  END
> <VConfSearch Rank>
180

> <Conf_Id>
56

> <Delta U+W>
0.853

> <U+W>
-52.307

> <U>
8.874

> <W>
-61.181

> <W(PB)>
-63.413

> <W(SA)>
2.232

> <Valence>
8.479

> <Coulomb>
-0.357

> <VdW>
0.753

> <VdW6>
-9.081

> <VdW12>
9.833

> <Bond>
0.221

> <Angle>
3.208

> <Pdih>
5.050

> <Idih>
0.000

> <Tether>
0.000

$$$$
VeraChem MOL file


 22 21  0  0  0  0  0  0  0  0999 V2000     
   20.1373   15.8679   24.7729 C   0  0  0  0  0  0  0  0  0  0  0  0
   21.3524   15.8668   24.7268 O   0  5  0  0  0  0  0  0  0  0  0  0
   19.4987   15.0941   25.4579 O   0  0  0  0  0  0  0  0  0  0  0  0
   19.3471   16.8790   23.9405 C   0  0  0  0  0  0  0  0  0  0  0  0
   18.7210   17.4541   24.6326 H   0  0  0  0  0  0  0  0  0  0  0  0
   18.6701   16.3106   23.2920 H   0  0  0  0  0  0  0  0  0  0  0  0
   20.2057   17.8463   23.0828 C   0  0  0  0  0  0  0  0  0  0  0  0
   20.8860   18.4080   23.7379 H   0  0  0  0  0  0  0  0  0  0  0  0
   20.8350   17.2635   22.3959 H   0  0  0  0  0  0  0  0  0  0  0  0
   19.3301   18.8303   22.2769 C   0  0  0  0  0  0  0  0  0  0  0  0
   18.7020   19.4118   22.9657 H   0  0  0  0  0  0  0  0  0  0  0  0
   18.6508   18.2664   21.6229 H   0  0  0  0  0  0  0  0  0  0  0  0
   20.1861   19.7914   21.4244 C   0  0  0  0  0  0  0  0  0  0  0  0
   20.8657   20.3555   22.0780 H   0  0  0  0  0  0  0  0  0  0  0  0
   20.8144   19.2104   20.7354 H   0  0  0  0  0  0  0  0  0  0  0  0
   19.3117   20.7751   20.6188 C   0  0  0  0  0  0  0  0  0  0  0  0
   18.6832   21.3596   21.3050 H   0  0  0  0  0  0  0  0  0  0  0  0
   18.6319   20.2144   19.9624 H   0  0  0  0  0  0  0  0  0  0  0  0
   20.1703   21.7331   19.7689 C   0  0  0  0  0  0  0  0  0  0  0  0
   20.8383   22.3298   20.4037 H   0  0  0  0  0  0  0  0  0  0  0  0
   19.5329   22.4250   19.2031 H   0  0  0  0  0  0  0  0  0  0  0  0
   20.7866   21.1761   19.0510 H   0  0  0  0  0  0  0  0  0  0  0  0
  1  2  1  0  0  0  0
  1  3  2  0  0  0  0
  1  4  1  0  0  0  0
  4  5  1  0  0  0  0
  4  6  1  0  0  0  0
  4  7  1  0  0  0  0
  7  8  1  0  0  0  0
  7  9  1  0  0  0  0
  7 10  1  0  0  0  0
 10 11  1  0  0  0  0
 10 12  1  0  0  0  0
 10 13  1  0  0  0  0
 13 14  1  0  0  0  0
 13 15  1  0  0  0  0
 13 16  1  0  0  0  0
 16 17  1  0  0  0  0
 16 18  1  0  0  0  0
 16 19  1  0  0  0  0
 19 20  1  0  0  0  0
 19 21  1  0  0  0  0
 19 22  1  0  0  0  0
M  END
> <VConfSearch Rank>
181

> <Conf_Id>
0

> <Delta U+W>
0.000

> <U+W>
-53.159

> <U>
6.763

> <W>
-59.922

> <W(PB)>
-62.256

> <W(SA)>
2.334

> <Valence>
7.600

> <Coulomb>
-2.139

> <VdW>
1.302

> <VdW6>
-6.786

> <VdW12>
8.088

> <Bond>
0.134

> <Angle>
2.720

> <Pdih>
4.746

> <Idih>
0.000

> <Tether>
0.000

$$$$
VeraChem MOL file


 22 21  0  0  0  0  0  0  0  0999 V2000     
   20.7082   17.0256   25.5646 C   0  0  0  0  0  0  0  0  0  0  0  0
   21.6795   16.3005   25.4797 O   0  5  0  0  0  0  0  0  0  0  0  0
   19.7525   16.7900   26.2770 O   0  0  0  0  0  0  0  0  0  0  0  0
   20.6771   18.2899   24.7132 C   0  0  0  0  0  0  0  0  0  0  0  0
   21.7061   18.6534   24.6053 H   0  0  0  0  0  0  0  0  0  0  0  0
   20.1182   19.0570   25.2626 H   0  0  0  0  0  0  0  0  0  0  0  0
   20.0420   18.0612   23.3195 C   0  0  0  0  0  0  0  0  0  0  0  0
   20.6050   17.2816   22.7877 H   0  0  0  0  0  0  0  0  0  0  0  0
   19.0171   17.6852   23.4450 H   0  0  0  0  0  0  0  0  0  0  0  0
   20.0223   19.3552   22.4775 C   0  0  0  0  0  0  0  0  0  0  0  0
   21.0481   19.7291   22.3549 H   0  0  0  0  0  0  0  0  0  0  0  0
   19.4599   20.1328   23.0125 H   0  0  0  0  0  0  0  0  0  0  0  0
   19.3886   19.1242   21.0888 C   0  0  0  0  0  0  0  0  0  0  0  0
   19.9508   18.3467   20.5535 H   0  0  0  0  0  0  0  0  0  0  0  0
   18.3628   18.7503   21.2109 H   0  0  0  0  0  0  0  0  0  0  0  0
   19.3686   20.4171   20.2466 C   0  0  0  0  0  0  0  0  0  0  0  0
   20.3934   20.7931   20.1206 H   0  0  0  0  0  0  0  0  0  0  0  0
   18.8054   21.1968   20.7780 H   0  0  0  0  0  0  0  0  0  0  0  0
   18.7351   20.1822   18.8606 C   0  0  0  0  0  0  0  0  0  0  0  0
   17.6979   19.8354   18.9565 H   0  0  0  0  0  0  0  0  0  0  0  0
   19.2977   19.4285   18.2942 H   0  0  0  0  0  0  0  0  0  0  0  0
   18.7291   21.1111   18.2756 H   0  0  0  0  0  0  0  0  0  0  0  0
  1  2  1  0  0  0  0
  1  3  2  0  0  0  0
  1  4  1  0  0  0  0
  4  5  1  0  0  0  0
  4  6  1  0  0  0  0
  4  7  1  0  0  0  0
  7  8  1  0  0  0  0
  7  9  1  0  0  0  0
  7 10  1  0  0  0  0
 10 11  1  0  0  0  0
 10 12  1  0  0  0  0
 10 13  1  0  0  0  0
 13 14  1  0  0  0  0
 13 15  1  0  0  0  0
 13 16  1  0  0  0  0
 16 17  1  0  0  0  0
 16 18  1  0  0  0  0
 16 19  1  0  0  0  0
 19 20  1  0  0  0  0
 19 21  1  0  0  0  0
 19 22  1  0  0  0  0
M  END
> <VConfSearch Rank>
182

> <Conf_Id>
10

> <Delta U+W>
-1.291

> <U+W>
-54.451

> <U>
5.779

> <W>
-60.230

> <W(PB)>
-62.557

> <W(SA)>
2.328

> <Valence>
7.101

> <Coulomb>
-2.079

> <VdW>
0.757

> <VdW6>
-6.496

> <VdW12>
7.253

> <Bond>
0.100

> <Angle>
2.262

> <Pdih>
4.738

> <Idih>
0.001

> <Tether>
0.000

$$$$
VeraChem MOL file


 22 21  0  0  0  0  0  0  0  0999 V2000     
   20.9703   15.3314   23.1845 C   0  0  0  0  0  0  0  0  0  0  0  0
   22.1244   15.0939   22.8877 O   0  5  0  0  0  0  0  0  0  0  0  0
   20.3823   14.7806   24.0941 O   0  0  0  0  0  0  0  0  0  0  0  0
   20.2254   16.3944   22.3850 C   0  0  0  0  0  0  0  0  0  0  0  0
   19.1660   16.1135   22.3486 H   0  0  0  0  0  0  0  0  0  0  0  0
   20.6021   16.3726   21.3553 H   0  0  0  0  0  0  0  0  0  0  0  0
   20.3813   17.8152   22.9811 C   0  0  0  0  0  0  0  0  0  0  0  0
   20.0121   17.8166   24.0161 H   0  0  0  0  0  0  0  0  0  0  0  0
   21.4478   18.0765   23.0223 H   0  0  0  0  0  0  0  0  0  0  0  0
   19.6183   18.8726   22.1540 C   0  0  0  0  0  0  0  0  0  0  0  0
   18.5523   18.6099   22.1163 H   0  0  0  0  0  0  0  0  0  0  0  0
   19.9896   18.8578   21.1210 H   0  0  0  0  0  0  0  0  0  0  0  0
   19.7801   20.2895   22.7510 C   0  0  0  0  0  0  0  0  0  0  0  0
   19.4707   20.2707   23.8049 H   0  0  0  0  0  0  0  0  0  0  0  0
   20.8407   20.5757   22.7432 H   0  0  0  0  0  0  0  0  0  0  0  0
   18.9488   21.3655   22.0145 C   0  0  0  0  0  0  0  0  0  0  0  0
   19.0264   22.3112   22.5686 H   0  0  0  0  0  0  0  0  0  0  0  0
   17.8863   21.0858   22.0258 H   0  0  0  0  0  0  0  0  0  0  0  0
   19.4080   21.6031   20.5596 C   0  0  0  0  0  0  0  0  0  0  0  0
   18.8482   22.4341   20.1113 H   0  0  0  0  0  0  0  0  0  0  0  0
   19.2405   20.7158   19.9365 H   0  0  0  0  0  0  0  0  0  0  0  0
   20.4758   21.8552   20.5208 H   0  0  0  0  0  0  0  0  0  0  0  0
  1  2  1  0  0  0  0
  1  3  2  0  0  0  0
  1  4  1  0  0  0  0
  4  5  1  0  0  0  0
  4  6  1  0  0  0  0
  4  7  1  0  0  0  0
  7  8  1  0  0  0  0
  7  9  1  0  0  0  0
  7 10  1  0  0  0  0
 10 11  1  0  0  0  0
 10 12  1  0  0  0  0
 10 13  1  0  0  0  0
 13 14  1  0  0  0  0
 13 15  1  0  0  0  0
 13 16  1  0  0  0  0
 16 17  1  0  0  0  0
 16 18  1  0  0  0  0
 16 19  1  0  0  0  0
 19 20  1  0  0  0  0
 19 21  1  0  0  0  0
 19 22  1  0  0  0  0
M  END
> <VConfSearch Rank>
183

> <Conf_Id>
37

> <Delta U+W>
-0.345

> <U+W>
-53.504

> <U>
6.751

> <W>
-60.255

> <W(PB)>
-62.592

> <W(SA)>
2.336

> <Valence>
7.602

> <Coulomb>
-1.744

> <VdW>
0.894

> <VdW6>
-7.110

> <VdW12>
8.004

> <Bond>
0.131

> <Angle>
2.489

> <Pdih>
4.982

> <Idih>
0.001

> <Tether>
0.000

$$$$
VeraChem MOL file


 22 21  0  0  0  0  0  0  0  0999 V2000     
   17.5136   21.0409   24.6119 C   0  0  0  0  0  0  0  0  0  0  0  0
   18.1459   21.7351   25.3831 O   0  5  0  0  0  0  0  0  0  0  0  0
   16.4027   20.6101   24.8500 O   0  0  0  0  0  0  0  0  0  0  0  0
   18.1588   20.6719   23.2808 C   0  0  0  0  0  0  0  0  0  0  0  0
   18.8009   21.5051   22.9708 H   0  0  0  0  0  0  0  0  0  0  0  0
   17.3640   20.5786   22.5311 H   0  0  0  0  0  0  0  0  0  0  0  0
   18.9813   19.3617   23.3534 C   0  0  0  0  0  0  0  0  0  0  0  0
   19.7648   19.4668   24.1168 H   0  0  0  0  0  0  0  0  0  0  0  0
   18.3273   18.5406   23.6781 H   0  0  0  0  0  0  0  0  0  0  0  0
   19.6237   19.0102   21.9939 C   0  0  0  0  0  0  0  0  0  0  0  0
   20.2688   19.8396   21.6757 H   0  0  0  0  0  0  0  0  0  0  0  0
   18.8382   18.9036   21.2334 H   0  0  0  0  0  0  0  0  0  0  0  0
   20.4468   17.7038   22.0726 C   0  0  0  0  0  0  0  0  0  0  0  0
   21.2649   17.8246   22.7958 H   0  0  0  0  0  0  0  0  0  0  0  0
   19.8055   16.9001   22.4597 H   0  0  0  0  0  0  0  0  0  0  0  0
   21.0238   17.2576   20.7091 C   0  0  0  0  0  0  0  0  0  0  0  0
   20.2076   17.1294   19.9847 H   0  0  0  0  0  0  0  0  0  0  0  0
   21.4893   16.2697   20.8297 H   0  0  0  0  0  0  0  0  0  0  0  0
   22.0744   18.2357   20.1402 C   0  0  0  0  0  0  0  0  0  0  0  0
   22.8861   18.4029   20.8601 H   0  0  0  0  0  0  0  0  0  0  0  0
   21.6264   19.2066   19.8943 H   0  0  0  0  0  0  0  0  0  0  0  0
   22.5164   17.8316   19.2203 H   0  0  0  0  0  0  0  0  0  0  0  0
  1  2  1  0  0  0  0
  1  3  2  0  0  0  0
  1  4  1  0  0  0  0
  4  5  1  0  0  0  0
  4  6  1  0  0  0  0
  4  7  1  0  0  0  0
  7  8  1  0  0  0  0
  7  9  1  0  0  0  0
  7 10  1  0  0  0  0
 10 11  1  0  0  0  0
 10 12  1  0  0  0  0
 10 13  1  0  0  0  0
 13 14  1  0  0  0  0
 13 15  1  0  0  0  0
 13 16  1  0  0  0  0
 16 17  1  0  0  0  0
 16 18  1  0  0  0  0
 16 19  1  0  0  0  0
 19 20  1  0  0  0  0
 19 21  1  0  0  0  0
 19 22  1  0  0  0  0
M  END
> <VConfSearch Rank>
184

> <Conf_Id>
38

> <Delta U+W>
-0.439

> <U+W>
-53.598

> <U>
6.751

> <W>
-60.350

> <W(PB)>
-62.659

> <W(SA)>
2.309

> <Valence>
7.602

> <Coulomb>
-1.744

> <VdW>
0.893

> <VdW6>
-7.110

> <VdW12>
8.004

> <Bond>
0.131

> <Angle>
2.489

> <Pdih>
4.981

> <Idih>
0.001

> <Tether>
0.000

$$$$
VeraChem MOL file


 22 21  0  0  0  0  0  0  0  0999 V2000     
   20.9568   19.8926   25.7286 C   0  0  0  0  0  0  0  0  0  0  0  0
   21.2673   19.0665   26.5639 O   0  5  0  0  0  0  0  0  0  0  0  0
   20.6128   21.0262   25.9990 O   0  0  0  0  0  0  0  0  0  0  0  0
   20.9782   19.4767   24.2620 C   0  0  0  0  0  0  0  0  0  0  0  0
   21.7743   18.7342   24.1308 H   0  0  0  0  0  0  0  0  0  0  0  0
   21.2534   20.3572   23.6709 H   0  0  0  0  0  0  0  0  0  0  0  0
   19.6216   18.8969   23.7834 C   0  0  0  0  0  0  0  0  0  0  0  0
   19.3314   18.0800   24.4585 H   0  0  0  0  0  0  0  0  0  0  0  0
   18.8412   19.6651   23.8736 H   0  0  0  0  0  0  0  0  0  0  0  0
   19.6552   18.3526   22.3352 C   0  0  0  0  0  0  0  0  0  0  0  0
   18.7035   17.8410   22.1429 H   0  0  0  0  0  0  0  0  0  0  0  0
   20.4419   17.5911   22.2465 H   0  0  0  0  0  0  0  0  0  0  0  0
   19.8713   19.4543   21.2687 C   0  0  0  0  0  0  0  0  0  0  0  0
   19.0856   20.2166   21.3587 H   0  0  0  0  0  0  0  0  0  0  0  0
   20.8241   19.9647   21.4580 H   0  0  0  0  0  0  0  0  0  0  0  0
   19.9004   18.9103   19.8211 C   0  0  0  0  0  0  0  0  0  0  0  0
   20.6777   18.1390   19.7298 H   0  0  0  0  0  0  0  0  0  0  0  0
   20.1924   19.7259   19.1452 H   0  0  0  0  0  0  0  0  0  0  0  0
   18.5441   18.3406   19.3515 C   0  0  0  0  0  0  0  0  0  0  0  0
   18.2661   17.4446   19.9201 H   0  0  0  0  0  0  0  0  0  0  0  0
   18.5931   18.0585   18.2918 H   0  0  0  0  0  0  0  0  0  0  0  0
   17.7446   19.0841   19.4664 H   0  0  0  0  0  0  0  0  0  0  0  0
  1  2  1  0  0  0  0
  1  3  2  0  0  0  0
  1  4  1  0  0  0  0
  4  5  1  0  0  0  0
  4  6  1  0  0  0  0
  4  7  1  0  0  0  0
  7  8  1  0  0  0  0
  7  9  1  0  0  0  0
  7 10  1  0  0  0  0
 10 11  1  0  0  0  0
 10 12  1  0  0  0  0
 10 13  1  0  0  0  0
 13 14  1  0  0  0  0
 13 15  1  0  0  0  0
 13 16  1  0  0  0  0
 16 17  1  0  0  0  0
 16 18  1  0  0  0  0
 16 19  1  0  0  0  0
 19 20  1  0  0  0  0
 19 21  1  0  0  0  0
 19 22  1  0  0  0  0
M  END
> <VConfSearch Rank>
185

> <Conf_Id>
60

> <Delta U+W>
0.386

> <U+W>
-52.773

> <U>
7.689

> <W>
-60.463

> <W(PB)>
-62.772

> <W(SA)>
2.309

> <Valence>
8.197

> <Coulomb>
-1.561

> <VdW>
1.053

> <VdW6>
-7.737

> <VdW12>
8.790

> <Bond>
0.181

> <Angle>
2.780

> <Pdih>
5.235

> <Idih>
0.001

> <Tether>
0.000

$$$$
VeraChem MOL file


 22 21  0  0  0  0  0  0  0  0999 V2000     
   19.1017   15.5684   20.7118 C   0  0  0  0  0  0  0  0  0  0  0  0
   18.1475   15.6518   19.9641 O   0  5  0  0  0  0  0  0  0  0  0  0
   19.5078   14.5186   21.1696 O   0  0  0  0  0  0  0  0  0  0  0  0
   19.8148   16.8539   21.1159 C   0  0  0  0  0  0  0  0  0  0  0  0
   19.7609   17.5447   20.2672 H   0  0  0  0  0  0  0  0  0  0  0  0
   20.8735   16.6188   21.2780 H   0  0  0  0  0  0  0  0  0  0  0  0
   19.2093   17.5006   22.3889 C   0  0  0  0  0  0  0  0  0  0  0  0
   18.1628   17.7766   22.1990 H   0  0  0  0  0  0  0  0  0  0  0  0
   19.1907   16.7483   23.1897 H   0  0  0  0  0  0  0  0  0  0  0  0
   19.9936   18.7367   22.8907 C   0  0  0  0  0  0  0  0  0  0  0  0
   21.0409   18.4593   23.0717 H   0  0  0  0  0  0  0  0  0  0  0  0
   19.5770   19.0314   23.8622 H   0  0  0  0  0  0  0  0  0  0  0  0
   19.9322   19.9405   21.9185 C   0  0  0  0  0  0  0  0  0  0  0  0
   20.3513   19.6481   20.9475 H   0  0  0  0  0  0  0  0  0  0  0  0
   18.8847   20.2165   21.7360 H   0  0  0  0  0  0  0  0  0  0  0  0
   20.7124   21.1772   22.4225 C   0  0  0  0  0  0  0  0  0  0  0  0
   20.7336   21.9293   21.6218 H   0  0  0  0  0  0  0  0  0  0  0  0
   21.7583   20.9023   22.6173 H   0  0  0  0  0  0  0  0  0  0  0  0
   20.0985   21.8177   23.6864 C   0  0  0  0  0  0  0  0  0  0  0  0
   19.0421   22.0693   23.5260 H   0  0  0  0  0  0  0  0  0  0  0  0
   20.6305   22.7426   23.9444 H   0  0  0  0  0  0  0  0  0  0  0  0
   20.1655   21.1454   24.5507 H   0  0  0  0  0  0  0  0  0  0  0  0
  1  2  1  0  0  0  0
  1  3  2  0  0  0  0
  1  4  1  0  0  0  0
  4  5  1  0  0  0  0
  4  6  1  0  0  0  0
  4  7  1  0  0  0  0
  7  8  1  0  0  0  0
  7  9  1  0  0  0  0
  7 10  1  0  0  0  0
 10 11  1  0  0  0  0
 10 12  1  0  0  0  0
 10 13  1  0  0  0  0
 13 14  1  0  0  0  0
 13 15  1  0  0  0  0
 13 16  1  0  0  0  0
 16 17  1  0  0  0  0
 16 18  1  0  0  0  0
 16 19  1  0  0  0  0
 19 20  1  0  0  0  0
 19 21  1  0  0  0  0
 19 22  1  0  0  0  0
M  END
> <VConfSearch Rank>
186

> <Conf_Id>
28

> <Delta U+W>
0.351

> <U+W>
-52.808

> <U>
7.689

> <W>
-60.498

> <W(PB)>
-62.768

> <W(SA)>
2.270

> <Valence>
8.197

> <Coulomb>
-1.561

> <VdW>
1.053

> <VdW6>
-7.737

> <VdW12>
8.791

> <Bond>
0.181

> <Angle>
2.780

> <Pdih>
5.235

> <Idih>
0.001

> <Tether>
0.000

$$$$
VeraChem MOL file


 22 21  0  0  0  0  0  0  0  0999 V2000     
   19.6519   15.6935   20.3510 C   0  0  0  0  0  0  0  0  0  0  0  0
   19.8887   14.6684   20.9588 O   0  5  0  0  0  0  0  0  0  0  0  0
   18.7346   15.8120   19.5629 O   0  0  0  0  0  0  0  0  0  0  0  0
   20.5427   16.9041   20.6063 C   0  0  0  0  0  0  0  0  0  0  0  0
   20.6019   17.4855   19.6783 H   0  0  0  0  0  0  0  0  0  0  0  0
   21.5540   16.5421   20.8273 H   0  0  0  0  0  0  0  0  0  0  0  0
   20.0287   17.7960   21.7632 C   0  0  0  0  0  0  0  0  0  0  0  0
   19.0091   18.1288   21.5281 H   0  0  0  0  0  0  0  0  0  0  0  0
   19.9667   17.1975   22.6825 H   0  0  0  0  0  0  0  0  0  0  0  0
   20.9474   19.0176   21.9970 C   0  0  0  0  0  0  0  0  0  0  0  0
   20.9677   19.6444   21.0949 H   0  0  0  0  0  0  0  0  0  0  0  0
   21.9762   18.6656   22.1540 H   0  0  0  0  0  0  0  0  0  0  0  0
   20.5327   19.8766   23.2151 C   0  0  0  0  0  0  0  0  0  0  0  0
   20.5163   19.2511   24.1180 H   0  0  0  0  0  0  0  0  0  0  0  0
   21.3043   20.6408   23.3808 H   0  0  0  0  0  0  0  0  0  0  0  0
   19.1652   20.5749   23.0401 C   0  0  0  0  0  0  0  0  0  0  0  0
   18.3667   19.8266   22.9509 H   0  0  0  0  0  0  0  0  0  0  0  0
   19.1635   21.1587   22.1093 H   0  0  0  0  0  0  0  0  0  0  0  0
   18.8494   21.5052   24.2286 C   0  0  0  0  0  0  0  0  0  0  0  0
   19.6090   22.2920   24.3248 H   0  0  0  0  0  0  0  0  0  0  0  0
   18.8178   20.9418   25.1703 H   0  0  0  0  0  0  0  0  0  0  0  0
   17.8745   21.9908   24.0912 H   0  0  0  0  0  0  0  0  0  0  0  0
  1  2  1  0  0  0  0
  1  3  2  0  0  0  0
  1  4  1  0  0  0  0
  4  5  1  0  0  0  0
  4  6  1  0  0  0  0
  4  7  1  0  0  0  0
  7  8  1  0  0  0  0
  7  9  1  0  0  0  0
  7 10  1  0  0  0  0
 10 11  1  0  0  0  0
 10 12  1  0  0  0  0
 10 13  1  0  0  0  0
 13 14  1  0  0  0  0
 13 15  1  0  0  0  0
 13 16  1  0  0  0  0
 16 17  1  0  0  0  0
 16 18  1  0  0  0  0
 16 19  1  0  0  0  0
 19 20  1  0  0  0  0
 19 21  1  0  0  0  0
 19 22  1  0  0  0  0
M  END
> <VConfSearch Rank>
187

> <Conf_Id>
50

> <Delta U+W>
-0.486

> <U+W>
-53.646

> <U>
7.026

> <W>
-60.672

> <W(PB)>
-62.964

> <W(SA)>
2.292

> <Valence>
7.637

> <Coulomb>
-1.488

> <VdW>
0.877

> <VdW6>
-7.165

> <VdW12>
8.043

> <Bond>
0.134

> <Angle>
2.513

> <Pdih>
4.990

> <Idih>
0.001

> <Tether>
0.000

$$$$
VeraChem MOL file


 22 21  0  0  0  0  0  0  0  0999 V2000     
   22.4746   21.5046   22.8146 C   0  0  0  0  0  0  0  0  0  0  0  0
   23.6026   21.1537   22.5301 O   0  5  0  0  0  0  0  0  0  0  0  0
   22.1983   22.1352   23.8158 O   0  0  0  0  0  0  0  0  0  0  0  0
   21.3403   21.1144   21.8736 C   0  0  0  0  0  0  0  0  0  0  0  0
   21.7371   21.0958   20.8515 H   0  0  0  0  0  0  0  0  0  0  0  0
   20.5793   21.9030   21.9119 H   0  0  0  0  0  0  0  0  0  0  0  0
   20.7089   19.7453   22.2277 C   0  0  0  0  0  0  0  0  0  0  0  0
   21.4851   18.9684   22.1939 H   0  0  0  0  0  0  0  0  0  0  0  0
   20.3377   19.7826   23.2603 H   0  0  0  0  0  0  0  0  0  0  0  0
   19.5595   19.3770   21.2611 C   0  0  0  0  0  0  0  0  0  0  0  0
   19.9334   19.4205   20.2290 H   0  0  0  0  0  0  0  0  0  0  0  0
   18.7594   20.1265   21.3337 H   0  0  0  0  0  0  0  0  0  0  0  0
   18.9726   17.9674   21.5102 C   0  0  0  0  0  0  0  0  0  0  0  0
   18.2571   17.7416   20.7077 H   0  0  0  0  0  0  0  0  0  0  0  0
   19.7716   17.2173   21.4338 H   0  0  0  0  0  0  0  0  0  0  0  0
   18.2571   17.8294   22.8731 C   0  0  0  0  0  0  0  0  0  0  0  0
   17.4932   18.6130   22.9717 H   0  0  0  0  0  0  0  0  0  0  0  0
   18.9729   17.9743   23.6928 H   0  0  0  0  0  0  0  0  0  0  0  0
   17.5938   16.4458   23.0258 C   0  0  0  0  0  0  0  0  0  0  0  0
   18.3401   15.6433   22.9585 H   0  0  0  0  0  0  0  0  0  0  0  0
   16.8419   16.2815   22.2429 H   0  0  0  0  0  0  0  0  0  0  0  0
   17.0931   16.3622   23.9991 H   0  0  0  0  0  0  0  0  0  0  0  0
  1  2  1  0  0  0  0
  1  3  2  0  0  0  0
  1  4  1  0  0  0  0
  4  5  1  0  0  0  0
  4  6  1  0  0  0  0
  4  7  1  0  0  0  0
  7  8  1  0  0  0  0
  7  9  1  0  0  0  0
  7 10  1  0  0  0  0
 10 11  1  0  0  0  0
 10 12  1  0  0  0  0
 10 13  1  0  0  0  0
 13 14  1  0  0  0  0
 13 15  1  0  0  0  0
 13 16  1  0  0  0  0
 16 17  1  0  0  0  0
 16 18  1  0  0  0  0
 16 19  1  0  0  0  0
 19 20  1  0  0  0  0
 19 21  1  0  0  0  0
 19 22  1  0  0  0  0
M  END
> <VConfSearch Rank>
188

> <Conf_Id>
51

> <Delta U+W>
-0.517

> <U+W>
-53.677

> <U>
7.026

> <W>
-60.703

> <W(PB)>
-63.007

> <W(SA)>
2.304

> <Valence>
7.638

> <Coulomb>
-1.488

> <VdW>
0.877

> <VdW6>
-7.165

> <VdW12>
8.042

> <Bond>
0.134

> <Angle>
2.513

> <Pdih>
4.990

> <Idih>
0.001

> <Tether>
0.000

$$$$
VeraChem MOL file


 22 21  0  0  0  0  0  0  0  0999 V2000     
   16.9856   17.7278   23.6935 C   0  0  0  0  0  0  0  0  0  0  0  0
   16.7959   18.1071   24.8324 O   0  5  0  0  0  0  0  0  0  0  0  0
   16.2558   18.0050   22.7622 O   0  0  0  0  0  0  0  0  0  0  0  0
   18.1968   16.8393   23.4239 C   0  0  0  0  0  0  0  0  0  0  0  0
   18.0420   16.3153   22.4729 H   0  0  0  0  0  0  0  0  0  0  0  0
   18.2224   16.0732   24.2079 H   0  0  0  0  0  0  0  0  0  0  0  0
   19.5465   17.6026   23.4013 C   0  0  0  0  0  0  0  0  0  0  0  0
   19.6740   18.1447   24.3487 H   0  0  0  0  0  0  0  0  0  0  0  0
   20.3667   16.8745   23.3408 H   0  0  0  0  0  0  0  0  0  0  0  0
   19.6519   18.5883   22.2160 C   0  0  0  0  0  0  0  0  0  0  0  0
   18.8443   19.3307   22.2791 H   0  0  0  0  0  0  0  0  0  0  0  0
   19.5108   18.0438   21.2723 H   0  0  0  0  0  0  0  0  0  0  0  0
   21.0147   19.3135   22.1950 C   0  0  0  0  0  0  0  0  0  0  0  0
   21.1551   19.8578   23.1390 H   0  0  0  0  0  0  0  0  0  0  0  0
   21.8239   18.5733   22.1290 H   0  0  0  0  0  0  0  0  0  0  0  0
   21.1204   20.2986   21.0120 C   0  0  0  0  0  0  0  0  0  0  0  0
   20.3134   21.0418   21.0756 H   0  0  0  0  0  0  0  0  0  0  0  0
   20.9821   19.7574   20.0657 H   0  0  0  0  0  0  0  0  0  0  0  0
   22.4822   21.0214   20.9946 C   0  0  0  0  0  0  0  0  0  0  0  0
   22.6332   21.5970   21.9173 H   0  0  0  0  0  0  0  0  0  0  0  0
   22.5400   21.7174   20.1477 H   0  0  0  0  0  0  0  0  0  0  0  0
   23.3070   20.3029   20.8998 H   0  0  0  0  0  0  0  0  0  0  0  0
  1  2  1  0  0  0  0
  1  3  2  0  0  0  0
  1  4  1  0  0  0  0
  4  5  1  0  0  0  0
  4  6  1  0  0  0  0
  4  7  1  0  0  0  0
  7  8  1  0  0  0  0
  7  9  1  0  0  0  0
  7 10  1  0  0  0  0
 10 11  1  0  0  0  0
 10 12  1  0  0  0  0
 10 13  1  0  0  0  0
 13 14  1  0  0  0  0
 13 15  1  0  0  0  0
 13 16  1  0  0  0  0
 16 17  1  0  0  0  0
 16 18  1  0  0  0  0
 16 19  1  0  0  0  0
 19 20  1  0  0  0  0
 19 21  1  0  0  0  0
 19 22  1  0  0  0  0
M  END
> <VConfSearch Rank>
189

> <Conf_Id>
43

> <Delta U+W>
-0.129

> <U+W>
-53.289

> <U>
7.937

> <W>
-61.225

> <W(PB)>
-63.523

> <W(SA)>
2.297

> <Valence>
7.358

> <Coulomb>
-0.022

> <VdW>
0.601

> <VdW6>
-7.363

> <VdW12>
7.964

> <Bond>
0.121

> <Angle>
2.425

> <Pdih>
4.811

> <Idih>
0.000

> <Tether>
0.000

$$$$
VeraChem MOL file


 22 21  0  0  0  0  0  0  0  0999 V2000     
   18.3178   20.0792   19.3274 C   0  0  0  0  0  0  0  0  0  0  0  0
   17.1869   19.6676   19.1589 O   0  5  0  0  0  0  0  0  0  0  0  0
   19.2511   19.7970   18.6020 O   0  0  0  0  0  0  0  0  0  0  0  0
   18.5740   21.0162   20.5045 C   0  0  0  0  0  0  0  0  0  0  0  0
   17.7728   21.7647   20.5081 H   0  0  0  0  0  0  0  0  0  0  0  0
   19.5118   21.5558   20.3249 H   0  0  0  0  0  0  0  0  0  0  0  0
   18.6219   20.3023   21.8803 C   0  0  0  0  0  0  0  0  0  0  0  0
   18.6704   21.0603   22.6737 H   0  0  0  0  0  0  0  0  0  0  0  0
   17.6879   19.7438   22.0332 H   0  0  0  0  0  0  0  0  0  0  0  0
   19.8300   19.3480   22.0129 C   0  0  0  0  0  0  0  0  0  0  0  0
   20.7602   19.9084   21.8463 H   0  0  0  0  0  0  0  0  0  0  0  0
   19.7792   18.5761   21.2326 H   0  0  0  0  0  0  0  0  0  0  0  0
   19.8755   18.6726   23.4004 C   0  0  0  0  0  0  0  0  0  0  0  0
   19.9291   19.4425   24.1824 H   0  0  0  0  0  0  0  0  0  0  0  0
   18.9450   18.1124   23.5663 H   0  0  0  0  0  0  0  0  0  0  0  0
   21.0812   17.7189   23.5333 C   0  0  0  0  0  0  0  0  0  0  0  0
   22.0141   18.2761   23.3696 H   0  0  0  0  0  0  0  0  0  0  0  0
   21.0300   16.9462   22.7537 H   0  0  0  0  0  0  0  0  0  0  0  0
   21.1230   17.0458   24.9198 C   0  0  0  0  0  0  0  0  0  0  0  0
   21.2061   17.7952   25.7179 H   0  0  0  0  0  0  0  0  0  0  0  0
   21.9859   16.3717   24.9967 H   0  0  0  0  0  0  0  0  0  0  0  0
   20.2146   16.4553   25.0973 H   0  0  0  0  0  0  0  0  0  0  0  0
  1  2  1  0  0  0  0
  1  3  2  0  0  0  0
  1  4  1  0  0  0  0
  4  5  1  0  0  0  0
  4  6  1  0  0  0  0
  4  7  1  0  0  0  0
  7  8  1  0  0  0  0
  7  9  1  0  0  0  0
  7 10  1  0  0  0  0
 10 11  1  0  0  0  0
 10 12  1  0  0  0  0
 10 13  1  0  0  0  0
 13 14  1  0  0  0  0
 13 15  1  0  0  0  0
 13 16  1  0  0  0  0
 16 17  1  0  0  0  0
 16 18  1  0  0  0  0
 16 19  1  0  0  0  0
 19 20  1  0  0  0  0
 19 21  1  0  0  0  0
 19 22  1  0  0  0  0
M  END
> <VConfSearch Rank>
190

> <Conf_Id>
44

> <Delta U+W>
-0.155

> <U+W>
-53.314

> <U>
7.937

> <W>
-61.252

> <W(PB)>
-63.556

> <W(SA)>
2.304

> <Valence>
7.358

> <Coulomb>
-0.021

> <VdW>
0.600

> <VdW6>
-7.363

> <VdW12>
7.964

> <Bond>
0.121

> <Angle>
2.425

> <Pdih>
4.811

> <Idih>
0.001

> <Tether>
0.000

$$$$
VeraChem MOL file


 22 21  0  0  0  0  0  0  0  0999 V2000     
   19.2446   15.9171   20.6924 C   0  0  0  0  0  0  0  0  0  0  0  0
   18.0641   15.6991   20.5033 O   0  5  0  0  0  0  0  0  0  0  0  0
   20.0027   15.1163   21.2031 O   0  0  0  0  0  0  0  0  0  0  0  0
   19.8078   17.2636   20.2462 C   0  0  0  0  0  0  0  0  0  0  0  0
   19.4289   17.4577   19.2358 H   0  0  0  0  0  0  0  0  0  0  0  0
   20.8982   17.1781   20.1652 H   0  0  0  0  0  0  0  0  0  0  0  0
   19.4311   18.4464   21.1760 C   0  0  0  0  0  0  0  0  0  0  0  0
   19.7454   19.3808   20.6940 H   0  0  0  0  0  0  0  0  0  0  0  0
   18.3382   18.4942   21.2794 H   0  0  0  0  0  0  0  0  0  0  0  0
   20.0861   18.3348   22.5738 C   0  0  0  0  0  0  0  0  0  0  0  0
   21.1798   18.3297   22.4714 H   0  0  0  0  0  0  0  0  0  0  0  0
   19.8134   17.3702   23.0235 H   0  0  0  0  0  0  0  0  0  0  0  0
   19.6614   19.4613   23.5456 C   0  0  0  0  0  0  0  0  0  0  0  0
   18.5675   19.4661   23.6476 H   0  0  0  0  0  0  0  0  0  0  0  0
   20.0647   19.2314   24.5413 H   0  0  0  0  0  0  0  0  0  0  0  0
   20.1515   20.8633   23.1184 C   0  0  0  0  0  0  0  0  0  0  0  0
   19.6959   21.1485   22.1612 H   0  0  0  0  0  0  0  0  0  0  0  0
   21.2391   20.8444   22.9635 H   0  0  0  0  0  0  0  0  0  0  0  0
   19.8036   21.9301   24.1760 C   0  0  0  0  0  0  0  0  0  0  0  0
   18.7184   21.9894   24.3314 H   0  0  0  0  0  0  0  0  0  0  0  0
   20.1549   22.9200   23.8570 H   0  0  0  0  0  0  0  0  0  0  0  0
   20.2758   21.6975   25.1395 H   0  0  0  0  0  0  0  0  0  0  0  0
  1  2  1  0  0  0  0
  1  3  2  0  0  0  0
  1  4  1  0  0  0  0
  4  5  1  0  0  0  0
  4  6  1  0  0  0  0
  4  7  1  0  0  0  0
  7  8  1  0  0  0  0
  7  9  1  0  0  0  0
  7 10  1  0  0  0  0
 10 11  1  0  0  0  0
 10 12  1  0  0  0  0
 10 13  1  0  0  0  0
 13 14  1  0  0  0  0
 13 15  1  0  0  0  0
 13 16  1  0  0  0  0
 16 17  1  0  0  0  0
 16 18  1  0  0  0  0
 16 19  1  0  0  0  0
 19 20  1  0  0  0  0
 19 21  1  0  0  0  0
 19 22  1  0  0  0  0
M  END
> <VConfSearch Rank>
191

> <Conf_Id>
53

> <Delta U+W>
0.723

> <U+W>
-52.436

> <U>
8.587

> <W>
-61.022

> <W(PB)>
-63.285

> <W(SA)>
2.263

> <Valence>
7.933

> <Coulomb>
-0.124

> <VdW>
0.778

> <VdW6>
-7.981

> <VdW12>
8.759

> <Bond>
0.160

> <Angle>
2.698

> <Pdih>
5.074

> <Idih>
0.001

> <Tether>
0.000

$$$$
VeraChem MOL file


 22 21  0  0  0  0  0  0  0  0999 V2000     
   19.3916   19.1450   25.6667 C   0  0  0  0  0  0  0  0  0  0  0  0
   18.2296   18.9261   25.9468 O   0  5  0  0  0  0  0  0  0  0  0  0
   20.2637   19.3107   26.4965 O   0  0  0  0  0  0  0  0  0  0  0  0
   19.7811   19.1924   24.1936 C   0  0  0  0  0  0  0  0  0  0  0  0
   20.6195   19.8906   24.0849 H   0  0  0  0  0  0  0  0  0  0  0  0
   18.9315   19.6068   23.6395 H   0  0  0  0  0  0  0  0  0  0  0  0
   20.1651   17.8012   23.6293 C   0  0  0  0  0  0  0  0  0  0  0  0
   20.9229   17.3520   24.2860 H   0  0  0  0  0  0  0  0  0  0  0  0
   19.2892   17.1393   23.6733 H   0  0  0  0  0  0  0  0  0  0  0  0
   20.7224   17.8298   22.1839 C   0  0  0  0  0  0  0  0  0  0  0  0
   21.0009   16.8013   21.9167 H   0  0  0  0  0  0  0  0  0  0  0  0
   21.6550   18.4095   22.1503 H   0  0  0  0  0  0  0  0  0  0  0  0
   19.7261   18.3522   21.1179 C   0  0  0  0  0  0  0  0  0  0  0  0
   19.8738   17.7783   20.1928 H   0  0  0  0  0  0  0  0  0  0  0  0
   18.6936   18.1555   21.4377 H   0  0  0  0  0  0  0  0  0  0  0  0
   19.9116   19.8513   20.7878 C   0  0  0  0  0  0  0  0  0  0  0  0
   20.9310   20.0220   20.4151 H   0  0  0  0  0  0  0  0  0  0  0  0
   19.8018   20.4624   21.6916 H   0  0  0  0  0  0  0  0  0  0  0  0
   18.8967   20.3268   19.7289 C   0  0  0  0  0  0  0  0  0  0  0  0
   19.0084   19.7604   18.7951 H   0  0  0  0  0  0  0  0  0  0  0  0
   19.0456   21.3901   19.5004 H   0  0  0  0  0  0  0  0  0  0  0  0
   17.8669   20.1981   20.0871 H   0  0  0  0  0  0  0  0  0  0  0  0
  1  2  1  0  0  0  0
  1  3  2  0  0  0  0
  1  4  1  0  0  0  0
  4  5  1  0  0  0  0
  4  6  1  0  0  0  0
  4  7  1  0  0  0  0
  7  8  1  0  0  0  0
  7  9  1  0  0  0  0
  7 10  1  0  0  0  0
 10 11  1  0  0  0  0
 10 12  1  0  0  0  0
 10 13  1  0  0  0  0
 13 14  1  0  0  0  0
 13 15  1  0  0  0  0
 13 16  1  0  0  0  0
 16 17  1  0  0  0  0
 16 18  1  0  0  0  0
 16 19  1  0  0  0  0
 19 20  1  0  0  0  0
 19 21  1  0  0  0  0
 19 22  1  0  0  0  0
M  END
> <VConfSearch Rank>
192

> <Conf_Id>
5

> <Delta U+W>
2.167

> <U+W>
-50.993

> <U>
10.045

> <W>
-61.037

> <W(PB)>
-63.303

> <W(SA)>
2.266

> <Valence>
10.100

> <Coulomb>
-0.883

> <VdW>
0.828

> <VdW6>
-8.177

> <VdW12>
9.005

> <Bond>
0.182

> <Angle>
2.988

> <Pdih>
6.930

> <Idih>
0.001

> <Tether>
0.000

$$$$
VeraChem MOL file


 22 21  0  0  0  0  0  0  0  0999 V2000     
   21.0347   15.8059   22.8433 C   0  0  0  0  0  0  0  0  0  0  0  0
   20.4914   15.3304   23.8207 O   0  5  0  0  0  0  0  0  0  0  0  0
   21.9133   15.2422   22.2212 O   0  0  0  0  0  0  0  0  0  0  0  0
   20.6067   17.1956   22.3856 C   0  0  0  0  0  0  0  0  0  0  0  0
   19.5373   17.3003   22.6006 H   0  0  0  0  0  0  0  0  0  0  0  0
   20.7325   17.2502   21.2978 H   0  0  0  0  0  0  0  0  0  0  0  0
   21.4081   18.3281   23.0758 C   0  0  0  0  0  0  0  0  0  0  0  0
   21.2064   18.3070   24.1557 H   0  0  0  0  0  0  0  0  0  0  0  0
   22.4810   18.1213   22.9595 H   0  0  0  0  0  0  0  0  0  0  0  0
   21.1181   19.7454   22.5210 C   0  0  0  0  0  0  0  0  0  0  0  0
   21.4104   19.8039   21.4636 H   0  0  0  0  0  0  0  0  0  0  0  0
   21.7750   20.4486   23.0511 H   0  0  0  0  0  0  0  0  0  0  0  0
   19.6548   20.2227   22.7015 C   0  0  0  0  0  0  0  0  0  0  0  0
   19.2053   19.7382   23.5791 H   0  0  0  0  0  0  0  0  0  0  0  0
   19.6643   21.2996   22.9186 H   0  0  0  0  0  0  0  0  0  0  0  0
   18.7762   19.9928   21.4501 C   0  0  0  0  0  0  0  0  0  0  0  0
   18.7616   18.9307   21.1779 H   0  0  0  0  0  0  0  0  0  0  0  0
   19.2076   20.5306   20.5945 H   0  0  0  0  0  0  0  0  0  0  0  0
   17.3301   20.4767   21.6781 C   0  0  0  0  0  0  0  0  0  0  0  0
   16.8610   19.9329   22.5085 H   0  0  0  0  0  0  0  0  0  0  0  0
   16.7213   20.3135   20.7793 H   0  0  0  0  0  0  0  0  0  0  0  0
   17.3066   21.5488   21.9133 H   0  0  0  0  0  0  0  0  0  0  0  0
  1  2  1  0  0  0  0
  1  3  2  0  0  0  0
  1  4  1  0  0  0  0
  4  5  1  0  0  0  0
  4  6  1  0  0  0  0
  4  7  1  0  0  0  0
  7  8  1  0  0  0  0
  7  9  1  0  0  0  0
  7 10  1  0  0  0  0
 10 11  1  0  0  0  0
 10 12  1  0  0  0  0
 10 13  1  0  0  0  0
 13 14  1  0  0  0  0
 13 15  1  0  0  0  0
 13 16  1  0  0  0  0
 16 17  1  0  0  0  0
 16 18  1  0  0  0  0
 16 19  1  0  0  0  0
 19 20  1  0  0  0  0
 19 21  1  0  0  0  0
 19 22  1  0  0  0  0
M  END
> <VConfSearch Rank>
193

> <Conf_Id>
6

> <Delta U+W>
2.118

> <U+W>
-51.042

> <U>
10.045

> <W>
-61.086

> <W(PB)>
-63.356

> <W(SA)>
2.270

> <Valence>
10.100

> <Coulomb>
-0.883

> <VdW>
0.828

> <VdW6>
-8.177

> <VdW12>
9.004

> <Bond>
0.182

> <Angle>
2.988

> <Pdih>
6.930

> <Idih>
0.001

> <Tether>
0.000

$$$$
VeraChem MOL file


 22 21  0  0  0  0  0  0  0  0999 V2000     
   18.8736   20.3432   24.8122 C   0  0  0  0  0  0  0  0  0  0  0  0
   17.7809   20.8150   24.5651 O   0  5  0  0  0  0  0  0  0  0  0  0
   19.8840   21.0107   24.9151 O   0  0  0  0  0  0  0  0  0  0  0  0
   18.9722   18.8421   25.0775 C   0  0  0  0  0  0  0  0  0  0  0  0
   18.3707   18.6474   25.9729 H   0  0  0  0  0  0  0  0  0  0  0  0
   20.0086   18.5929   25.3355 H   0  0  0  0  0  0  0  0  0  0  0  0
   18.4704   17.9297   23.9230 C   0  0  0  0  0  0  0  0  0  0  0  0
   18.2441   16.9416   24.3461 H   0  0  0  0  0  0  0  0  0  0  0  0
   17.5197   18.3139   23.5280 H   0  0  0  0  0  0  0  0  0  0  0  0
   19.4824   17.7275   22.7682 C   0  0  0  0  0  0  0  0  0  0  0  0
   19.0861   16.9521   22.0983 H   0  0  0  0  0  0  0  0  0  0  0  0
   20.4272   17.3355   23.1689 H   0  0  0  0  0  0  0  0  0  0  0  0
   19.7586   19.0037   21.9414 C   0  0  0  0  0  0  0  0  0  0  0  0
   18.8066   19.4529   21.6268 H   0  0  0  0  0  0  0  0  0  0  0  0
   20.2746   19.7464   22.5629 H   0  0  0  0  0  0  0  0  0  0  0  0
   20.6238   18.7027   20.6994 C   0  0  0  0  0  0  0  0  0  0  0  0
   20.1153   17.9661   20.0621 H   0  0  0  0  0  0  0  0  0  0  0  0
   21.5757   18.2517   21.0123 H   0  0  0  0  0  0  0  0  0  0  0  0
   20.9058   19.9787   19.8811 C   0  0  0  0  0  0  0  0  0  0  0  0
   19.9708   20.4336   19.5288 H   0  0  0  0  0  0  0  0  0  0  0  0
   21.5225   19.7472   19.0029 H   0  0  0  0  0  0  0  0  0  0  0  0
   21.4418   20.7221   20.4857 H   0  0  0  0  0  0  0  0  0  0  0  0
  1  2  1  0  0  0  0
  1  3  2  0  0  0  0
  1  4  1  0  0  0  0
  4  5  1  0  0  0  0
  4  6  1  0  0  0  0
  4  7  1  0  0  0  0
  7  8  1  0  0  0  0
  7  9  1  0  0  0  0
  7 10  1  0  0  0  0
 10 11  1  0  0  0  0
 10 12  1  0  0  0  0
 10 13  1  0  0  0  0
 13 14  1  0  0  0  0
 13 15  1  0  0  0  0
 13 16  1  0  0  0  0
 16 17  1  0  0  0  0
 16 18  1  0  0  0  0
 16 19  1  0  0  0  0
 19 20  1  0  0  0  0
 19 21  1  0  0  0  0
 19 22  1  0  0  0  0
M  END
> <VConfSearch Rank>
194

> <Conf_Id>
8

> <Delta U+W>
1.886

> <U+W>
-51.274

> <U>
11.237

> <W>
-62.510

> <W(PB)>
-64.777

> <W(SA)>
2.267

> <Valence>
9.029

> <Coulomb>
1.667

> <VdW>
0.540

> <VdW6>
-8.825

> <VdW12>
9.365

> <Bond>
0.186

> <Angle>
3.195

> <Pdih>
5.642

> <Idih>
0.007

> <Tether>
0.000

$$$$
VeraChem MOL file


 22 21  0  0  0  0  0  0  0  0999 V2000     
   22.0834   20.1352   20.9163 C   0  0  0  0  0  0  0  0  0  0  0  0
   21.6586   19.6444   19.8890 O   0  5  0  0  0  0  0  0  0  0  0  0
   23.2459   20.0645   21.2643 O   0  0  0  0  0  0  0  0  0  0  0  0
   21.1128   20.9087   21.8044 C   0  0  0  0  0  0  0  0  0  0  0  0
   20.2024   21.1176   21.2315 H   0  0  0  0  0  0  0  0  0  0  0  0
   21.5723   21.8805   22.0192 H   0  0  0  0  0  0  0  0  0  0  0  0
   20.7701   20.1970   23.1420 C   0  0  0  0  0  0  0  0  0  0  0  0
   21.6954   20.0767   23.7222 H   0  0  0  0  0  0  0  0  0  0  0  0
   20.1158   20.8467   23.7387 H   0  0  0  0  0  0  0  0  0  0  0  0
   20.1010   18.8094   22.9813 C   0  0  0  0  0  0  0  0  0  0  0  0
   19.9951   18.3673   23.9800 H   0  0  0  0  0  0  0  0  0  0  0  0
   20.7644   18.1410   22.4155 H   0  0  0  0  0  0  0  0  0  0  0  0
   18.7150   18.8694   22.2937 C   0  0  0  0  0  0  0  0  0  0  0  0
   18.0549   19.5522   22.8455 H   0  0  0  0  0  0  0  0  0  0  0  0
   18.8287   19.2887   21.2856 H   0  0  0  0  0  0  0  0  0  0  0  0
   18.0353   17.4866   22.1602 C   0  0  0  0  0  0  0  0  0  0  0  0
   18.7004   16.7971   21.6220 H   0  0  0  0  0  0  0  0  0  0  0  0
   17.1352   17.5964   21.5397 H   0  0  0  0  0  0  0  0  0  0  0  0
   17.6292   16.8678   23.5156 C   0  0  0  0  0  0  0  0  0  0  0  0
   18.5077   16.6253   24.1261 H   0  0  0  0  0  0  0  0  0  0  0  0
   17.0675   15.9378   23.3593 H   0  0  0  0  0  0  0  0  0  0  0  0
   16.9916   17.5555   24.0862 H   0  0  0  0  0  0  0  0  0  0  0  0
  1  2  1  0  0  0  0
  1  3  2  0  0  0  0
  1  4  1  0  0  0  0
  4  5  1  0  0  0  0
  4  6  1  0  0  0  0
  4  7  1  0  0  0  0
  7  8  1  0  0  0  0
  7  9  1  0  0  0  0
  7 10  1  0  0  0  0
 10 11  1  0  0  0  0
 10 12  1  0  0  0  0
 10 13  1  0  0  0  0
 13 14  1  0  0  0  0
 13 15  1  0  0  0  0
 13 16  1  0  0  0  0
 16 17  1  0  0  0  0
 16 18  1  0  0  0  0
 16 19  1  0  0  0  0
 19 20  1  0  0  0  0
 19 21  1  0  0  0  0
 19 22  1  0  0  0  0
M  END
> <VConfSearch Rank>
195

> <Conf_Id>
93

> <Delta U+W>
1.836

> <U+W>
-51.323

> <U>
10.427

> <W>
-61.751

> <W(PB)>
-63.980

> <W(SA)>
2.230

> <Valence>
8.446

> <Coulomb>
1.306

> <VdW>
0.676

> <VdW6>
-8.928

> <VdW12>
9.604

> <Bond>
0.209

> <Angle>
3.066

> <Pdih>
5.170

> <Idih>
0.001

> <Tether>
0.000

$$$$
VeraChem MOL file


 22 21  0  0  0  0  0  0  0  0999 V2000     
   20.2576   18.7804   25.4702 C   0  0  0  0  0  0  0  0  0  0  0  0
   19.6146   18.0798   26.2271 O   0  5  0  0  0  0  0  0  0  0  0  0
   20.3422   19.9877   25.5806 O   0  0  0  0  0  0  0  0  0  0  0  0
   21.0240   18.1017   24.3384 C   0  0  0  0  0  0  0  0  0  0  0  0
   21.6001   17.2812   24.7819 H   0  0  0  0  0  0  0  0  0  0  0  0
   21.7563   18.8103   23.9353 H   0  0  0  0  0  0  0  0  0  0  0  0
   20.1206   17.5402   23.2062 C   0  0  0  0  0  0  0  0  0  0  0  0
   20.7477   17.0223   22.4681 H   0  0  0  0  0  0  0  0  0  0  0  0
   19.4560   16.7770   23.6342 H   0  0  0  0  0  0  0  0  0  0  0  0
   19.2559   18.6030   22.4842 C   0  0  0  0  0  0  0  0  0  0  0  0
   18.5991   19.1022   23.2097 H   0  0  0  0  0  0  0  0  0  0  0  0
   18.5973   18.0809   21.7787 H   0  0  0  0  0  0  0  0  0  0  0  0
   20.0899   19.6631   21.7238 C   0  0  0  0  0  0  0  0  0  0  0  0
   20.7289   20.2006   22.4364 H   0  0  0  0  0  0  0  0  0  0  0  0
   20.7624   19.1667   21.0112 H   0  0  0  0  0  0  0  0  0  0  0  0
   19.2248   20.7067   20.9792 C   0  0  0  0  0  0  0  0  0  0  0  0
   19.8833   21.4964   20.5920 H   0  0  0  0  0  0  0  0  0  0  0  0
   18.5402   21.1937   21.6873 H   0  0  0  0  0  0  0  0  0  0  0  0
   18.4212   20.1118   19.8023 C   0  0  0  0  0  0  0  0  0  0  0  0
   17.6611   19.4025   20.1523 H   0  0  0  0  0  0  0  0  0  0  0  0
   19.0828   19.5895   19.0990 H   0  0  0  0  0  0  0  0  0  0  0  0
   17.9031   20.9072   19.2512 H   0  0  0  0  0  0  0  0  0  0  0  0
  1  2  1  0  0  0  0
  1  3  2  0  0  0  0
  1  4  1  0  0  0  0
  4  5  1  0  0  0  0
  4  6  1  0  0  0  0
  4  7  1  0  0  0  0
  7  8  1  0  0  0  0
  7  9  1  0  0  0  0
  7 10  1  0  0  0  0
 10 11  1  0  0  0  0
 10 12  1  0  0  0  0
 10 13  1  0  0  0  0
 13 14  1  0  0  0  0
 13 15  1  0  0  0  0
 13 16  1  0  0  0  0
 16 17  1  0  0  0  0
 16 18  1  0  0  0  0
 16 19  1  0  0  0  0
 19 20  1  0  0  0  0
 19 21  1  0  0  0  0
 19 22  1  0  0  0  0
M  END
> <VConfSearch Rank>
196

> <Conf_Id>
70

> <Delta U+W>
1.803

> <U+W>
-51.356

> <U>
10.428

> <W>
-61.784

> <W(PB)>
-64.014

> <W(SA)>
2.230

> <Valence>
8.445

> <Coulomb>
1.306

> <VdW>
0.676

> <VdW6>
-8.929

> <VdW12>
9.605

> <Bond>
0.209

> <Angle>
3.066

> <Pdih>
5.170

> <Idih>
0.001

> <Tether>
0.000

$$$$
VeraChem MOL file


 22 21  0  0  0  0  0  0  0  0999 V2000     
   22.4814   18.6909   20.6016 C   0  0  0  0  0  0  0  0  0  0  0  0
   22.6549   17.4889   20.5564 O   0  5  0  0  0  0  0  0  0  0  0  0
   23.3057   19.4735   21.0316 O   0  0  0  0  0  0  0  0  0  0  0  0
   21.1639   19.2477   20.0694 C   0  0  0  0  0  0  0  0  0  0  0  0
   20.9579   18.7484   19.1153 H   0  0  0  0  0  0  0  0  0  0  0  0
   21.2983   20.3133   19.8474 H   0  0  0  0  0  0  0  0  0  0  0  0
   19.9622   19.0471   21.0289 C   0  0  0  0  0  0  0  0  0  0  0  0
   19.0410   19.3550   20.5162 H   0  0  0  0  0  0  0  0  0  0  0  0
   19.8598   17.9767   21.2514 H   0  0  0  0  0  0  0  0  0  0  0  0
   20.1110   19.8544   22.3406 C   0  0  0  0  0  0  0  0  0  0  0  0
   20.2997   20.9077   22.0919 H   0  0  0  0  0  0  0  0  0  0  0  0
   20.9927   19.5053   22.8958 H   0  0  0  0  0  0  0  0  0  0  0  0
   18.8646   19.7810   23.2541 C   0  0  0  0  0  0  0  0  0  0  0  0
   19.0073   20.4747   24.0939 H   0  0  0  0  0  0  0  0  0  0  0  0
   17.9830   20.1369   22.7037 H   0  0  0  0  0  0  0  0  0  0  0  0
   18.5937   18.3659   23.8131 C   0  0  0  0  0  0  0  0  0  0  0  0
   19.4937   17.9886   24.3180 H   0  0  0  0  0  0  0  0  0  0  0  0
   18.3715   17.6711   22.9926 H   0  0  0  0  0  0  0  0  0  0  0  0
   17.4123   18.3660   24.8041 C   0  0  0  0  0  0  0  0  0  0  0  0
   17.6168   19.0227   25.6598 H   0  0  0  0  0  0  0  0  0  0  0  0
   17.2307   17.3543   25.1894 H   0  0  0  0  0  0  0  0  0  0  0  0
   16.4917   18.7136   24.3171 H   0  0  0  0  0  0  0  0  0  0  0  0
  1  2  1  0  0  0  0
  1  3  2  0  0  0  0
  1  4  1  0  0  0  0
  4  5  1  0  0  0  0
  4  6  1  0  0  0  0
  4  7  1  0  0  0  0
  7  8  1  0  0  0  0
  7  9  1  0  0  0  0
  7 10  1  0  0  0  0
 10 11  1  0  0  0  0
 10 12  1  0  0  0  0
 10 13  1  0  0  0  0
 13 14  1  0  0  0  0
 13 15  1  0  0  0  0
 13 16  1  0  0  0  0
 16 17  1  0  0  0  0
 16 18  1  0  0  0  0
 16 19  1  0  0  0  0
 19 20  1  0  0  0  0
 19 21  1  0  0  0  0
 19 22  1  0  0  0  0
M  END
> <VConfSearch Rank>
197

> <Conf_Id>
85

> <Delta U+W>
0.707

> <U+W>
-52.452

> <U>
8.925

> <W>
-61.378

> <W(PB)>
-63.661

> <W(SA)>
2.283

> <Valence>
7.881

> <Coulomb>
0.349

> <VdW>
0.695

> <VdW6>
-8.049

> <VdW12>
8.743

> <Bond>
0.156

> <Angle>
2.660

> <Pdih>
5.064

> <Idih>
0.001

> <Tether>
0.000

$$$$
VeraChem MOL file


 22 21  0  0  0  0  0  0  0  0999 V2000     
   16.7202   17.8073   22.7066 C   0  0  0  0  0  0  0  0  0  0  0  0
   15.9082   18.7010   22.5685 O   0  5  0  0  0  0  0  0  0  0  0  0
   16.6280   16.7254   22.1608 O   0  0  0  0  0  0  0  0  0  0  0  0
   17.9088   18.0465   23.6336 C   0  0  0  0  0  0  0  0  0  0  0  0
   18.0061   17.1624   24.2746 H   0  0  0  0  0  0  0  0  0  0  0  0
   17.6758   18.8920   24.2921 H   0  0  0  0  0  0  0  0  0  0  0  0
   19.2483   18.2978   22.8932 C   0  0  0  0  0  0  0  0  0  0  0  0
   20.0575   18.3001   23.6344 H   0  0  0  0  0  0  0  0  0  0  0  0
   19.4456   17.4662   22.2028 H   0  0  0  0  0  0  0  0  0  0  0  0
   19.2591   19.6373   22.1206 C   0  0  0  0  0  0  0  0  0  0  0  0
   19.1469   20.4685   22.8300 H   0  0  0  0  0  0  0  0  0  0  0  0
   18.3833   19.6790   21.4588 H   0  0  0  0  0  0  0  0  0  0  0  0
   20.5257   19.8637   21.2575 C   0  0  0  0  0  0  0  0  0  0  0  0
   20.5970   19.0879   20.4830 H   0  0  0  0  0  0  0  0  0  0  0  0
   20.3920   20.8115   20.7183 H   0  0  0  0  0  0  0  0  0  0  0  0
   21.8498   19.9474   22.0572 C   0  0  0  0  0  0  0  0  0  0  0  0
   21.6578   20.3122   23.0756 H   0  0  0  0  0  0  0  0  0  0  0  0
   22.4999   20.6954   21.5826 H   0  0  0  0  0  0  0  0  0  0  0  0
   22.6189   18.6082   22.1034 C   0  0  0  0  0  0  0  0  0  0  0  0
   22.0313   17.8159   22.5808 H   0  0  0  0  0  0  0  0  0  0  0  0
   23.5523   18.7210   22.6699 H   0  0  0  0  0  0  0  0  0  0  0  0
   22.8793   18.2729   21.0911 H   0  0  0  0  0  0  0  0  0  0  0  0
  1  2  1  0  0  0  0
  1  3  2  0  0  0  0
  1  4  1  0  0  0  0
  4  5  1  0  0  0  0
  4  6  1  0  0  0  0
  4  7  1  0  0  0  0
  7  8  1  0  0  0  0
  7  9  1  0  0  0  0
  7 10  1  0  0  0  0
 10 11  1  0  0  0  0
 10 12  1  0  0  0  0
 10 13  1  0  0  0  0
 13 14  1  0  0  0  0
 13 15  1  0  0  0  0
 13 16  1  0  0  0  0
 16 17  1  0  0  0  0
 16 18  1  0  0  0  0
 16 19  1  0  0  0  0
 19 20  1  0  0  0  0
 19 21  1  0  0  0  0
 19 22  1  0  0  0  0
M  END
> <VConfSearch Rank>
198

> <Conf_Id>
82

> <Delta U+W>
3.438

> <U+W>
-49.721

> <U>
11.773

> <W>
-61.495

> <W(PB)>
-63.749

> <W(SA)>
2.254

> <Valence>
10.419

> <Coulomb>
0.565

> <VdW>
0.789

> <VdW6>
-8.847

> <VdW12>
9.636

> <Bond>
0.200

> <Angle>
3.187

> <Pdih>
7.032

> <Idih>
0.001

> <Tether>
0.000

$$$$
VeraChem MOL file


 22 21  0  0  0  0  0  0  0  0999 V2000     
   22.5165   19.9110   20.5363 C   0  0  0  0  0  0  0  0  0  0  0  0
   23.3442   20.4026   21.2781 O   0  5  0  0  0  0  0  0  0  0  0  0
   22.7903   19.1248   19.6509 O   0  0  0  0  0  0  0  0  0  0  0  0
   21.0575   20.3225   20.7129 C   0  0  0  0  0  0  0  0  0  0  0  0
   20.5113   20.0826   19.7926 H   0  0  0  0  0  0  0  0  0  0  0  0
   21.0364   21.4135   20.8191 H   0  0  0  0  0  0  0  0  0  0  0  0
   20.3595   19.6708   21.9351 C   0  0  0  0  0  0  0  0  0  0  0  0
   20.9426   19.8795   22.8427 H   0  0  0  0  0  0  0  0  0  0  0  0
   19.3787   20.1448   22.0661 H   0  0  0  0  0  0  0  0  0  0  0  0
   20.1717   18.1449   21.7694 C   0  0  0  0  0  0  0  0  0  0  0  0
   21.1403   17.6863   21.5276 H   0  0  0  0  0  0  0  0  0  0  0  0
   19.5169   17.9492   20.9095 H   0  0  0  0  0  0  0  0  0  0  0  0
   19.6025   17.4341   23.0229 C   0  0  0  0  0  0  0  0  0  0  0  0
   19.5686   16.3579   22.8047 H   0  0  0  0  0  0  0  0  0  0  0  0
   20.2971   17.5453   23.8667 H   0  0  0  0  0  0  0  0  0  0  0  0
   18.1795   17.8866   23.4358 C   0  0  0  0  0  0  0  0  0  0  0  0
   17.6275   17.0126   23.8082 H   0  0  0  0  0  0  0  0  0  0  0  0
   17.6245   18.2469   22.5586 H   0  0  0  0  0  0  0  0  0  0  0  0
   18.1803   18.9593   24.5476 C   0  0  0  0  0  0  0  0  0  0  0  0
   18.6692   18.5805   25.4546 H   0  0  0  0  0  0  0  0  0  0  0  0
   17.1523   19.2383   24.8124 H   0  0  0  0  0  0  0  0  0  0  0  0
   18.7046   19.8698   24.2365 H   0  0  0  0  0  0  0  0  0  0  0  0
  1  2  1  0  0  0  0
  1  3  2  0  0  0  0
  1  4  1  0  0  0  0
  4  5  1  0  0  0  0
  4  6  1  0  0  0  0
  4  7  1  0  0  0  0
  7  8  1  0  0  0  0
  7  9  1  0  0  0  0
  7 10  1  0  0  0  0
 10 11  1  0  0  0  0
 10 12  1  0  0  0  0
 10 13  1  0  0  0  0
 13 14  1  0  0  0  0
 13 15  1  0  0  0  0
 13 16  1  0  0  0  0
 16 17  1  0  0  0  0
 16 18  1  0  0  0  0
 16 19  1  0  0  0  0
 19 20  1  0  0  0  0
 19 21  1  0  0  0  0
 19 22  1  0  0  0  0
M  END
> <VConfSearch Rank>
199

> <Conf_Id>
94

> <Delta U+W>
3.471

> <U+W>
-49.688

> <U>
11.773

> <W>
-61.461

> <W(PB)>
-63.710

> <W(SA)>
2.248

> <Valence>
10.419

> <Coulomb>
0.566

> <VdW>
0.789

> <VdW6>
-8.847

> <VdW12>
9.636

> <Bond>
0.200

> <Angle>
3.187

> <Pdih>
7.032

> <Idih>
0.001

> <Tether>
0.000

$$$$
VeraChem MOL file


 22 21  0  0  0  0  0  0  0  0999 V2000     
   22.8779   20.3297   22.7162 C   0  0  0  0  0  0  0  0  0  0  0  0
   23.9257   19.8303   23.0759 O   0  5  0  0  0  0  0  0  0  0  0  0
   22.6051   21.5039   22.8688 O   0  0  0  0  0  0  0  0  0  0  0  0
   21.8411   19.4290   22.0545 C   0  0  0  0  0  0  0  0  0  0  0  0
   22.3730   18.6507   21.4946 H   0  0  0  0  0  0  0  0  0  0  0  0
   21.2890   20.0344   21.3266 H   0  0  0  0  0  0  0  0  0  0  0  0
   20.8680   18.7837   23.0748 C   0  0  0  0  0  0  0  0  0  0  0  0
   21.4559   18.2534   23.8365 H   0  0  0  0  0  0  0  0  0  0  0  0
   20.3196   19.5713   23.6085 H   0  0  0  0  0  0  0  0  0  0  0  0
   19.8737   17.7835   22.4334 C   0  0  0  0  0  0  0  0  0  0  0  0
   19.2603   17.3350   23.2259 H   0  0  0  0  0  0  0  0  0  0  0  0
   20.4416   16.9534   21.9917 H   0  0  0  0  0  0  0  0  0  0  0  0
   18.9449   18.3822   21.3443 C   0  0  0  0  0  0  0  0  0  0  0  0
   19.5479   18.6833   20.4777 H   0  0  0  0  0  0  0  0  0  0  0  0
   18.2774   17.5897   20.9797 H   0  0  0  0  0  0  0  0  0  0  0  0
   18.0856   19.5868   21.8006 C   0  0  0  0  0  0  0  0  0  0  0  0
   17.4939   19.9392   20.9446 H   0  0  0  0  0  0  0  0  0  0  0  0
   18.7330   20.4259   22.0883 H   0  0  0  0  0  0  0  0  0  0  0  0
   17.1261   19.2466   22.9614 C   0  0  0  0  0  0  0  0  0  0  0  0
   16.4797   18.3985   22.7010 H   0  0  0  0  0  0  0  0  0  0  0  0
   16.4823   20.1052   23.1921 H   0  0  0  0  0  0  0  0  0  0  0  0
   17.6795   18.9908   23.8737 H   0  0  0  0  0  0  0  0  0  0  0  0
  1  2  1  0  0  0  0
  1  3  2  0  0  0  0
  1  4  1  0  0  0  0
  4  5  1  0  0  0  0
  4  6  1  0  0  0  0
  4  7  1  0  0  0  0
  7  8  1  0  0  0  0
  7  9  1  0  0  0  0
  7 10  1  0  0  0  0
 10 11  1  0  0  0  0
 10 12  1  0  0  0  0
 10 13  1  0  0  0  0
 13 14  1  0  0  0  0
 13 15  1  0  0  0  0
 13 16  1  0  0  0  0
 16 17  1  0  0  0  0
 16 18  1  0  0  0  0
 16 19  1  0  0  0  0
 19 20  1  0  0  0  0
 19 21  1  0  0  0  0
 19 22  1  0  0  0  0
M  END
> <VConfSearch Rank>
200

> <Conf_Id>
56

> <Delta U+W>
0.853

> <U+W>
-52.307

> <U>
8.874

> <W>
-61.181

> <W(PB)>
-63.413

> <W(SA)>
2.232

> <Valence>
8.479

> <Coulomb>
-0.357

> <VdW>
0.753

> <VdW6>
-9.081

> <VdW12>
9.833

> <Bond>
0.221

> <Angle>
3.208

> <Pdih>
5.050

> <Idih>
0.000

> <Tether>
0.000

$$$$
VeraChem MOL file


 22 21  0  0  0  0  0  0  0  0999 V2000     
   16.6248   21.4255   21.9300 C   0  0  0  0  0  0  0  0  0  0  0  0
   15.8893   20.6318   22.4845 O   0  5  0  0  0  0  0  0  0  0  0  0
   16.2541   22.5168   21.5457 O   0  0  0  0  0  0  0  0  0  0  0  0
   18.0910   21.0621   21.6902 C   0  0  0  0  0  0  0  0  0  0  0  0
   18.7023   21.8330   22.1738 H   0  0  0  0  0  0  0  0  0  0  0  0
   18.2743   21.1368   20.6119 H   0  0  0  0  0  0  0  0  0  0  0  0
   18.5176   19.6592   22.1986 C   0  0  0  0  0  0  0  0  0  0  0  0
   18.3256   19.5889   23.2783 H   0  0  0  0  0  0  0  0  0  0  0  0
   17.8973   18.8920   21.7147 H   0  0  0  0  0  0  0  0  0  0  0  0
   20.0091   19.3753   21.9166 C   0  0  0  0  0  0  0  0  0  0  0  0
   20.6271   20.1435   22.4013 H   0  0  0  0  0  0  0  0  0  0  0  0
   20.1986   19.4463   20.8367 H   0  0  0  0  0  0  0  0  0  0  0  0
   20.4313   17.9794   22.4230 C   0  0  0  0  0  0  0  0  0  0  0  0
   20.2418   17.9078   23.5029 H   0  0  0  0  0  0  0  0  0  0  0  0
   19.8134   17.2108   21.9386 H   0  0  0  0  0  0  0  0  0  0  0  0
   21.9216   17.6950   22.1417 C   0  0  0  0  0  0  0  0  0  0  0  0
   22.5429   18.4607   22.6265 H   0  0  0  0  0  0  0  0  0  0  0  0
   22.1145   17.7637   21.0621 H   0  0  0  0  0  0  0  0  0  0  0  0
   22.3392   16.3001   22.6488 C   0  0  0  0  0  0  0  0  0  0  0  0
   22.1861   16.2141   23.7326 H   0  0  0  0  0  0  0  0  0  0  0  0
   23.4010   16.1146   22.4407 H   0  0  0  0  0  0  0  0  0  0  0  0
   21.7546   15.5119   22.1564 H   0  0  0  0  0  0  0  0  0  0  0  0
  1  2  1  0  0  0  0
  1  3  2  0  0  0  0
  1  4  1  0  0  0  0
  4  5  1  0  0  0  0
  4  6  1  0  0  0  0
  4  7  1  0  0  0  0
  7  8  1  0  0  0  0
  7  9  1  0  0  0  0
  7 10  1  0  0  0  0
 10 11  1  0  0  0  0
 10 12  1  0  0  0  0
 10 13  1  0  0  0  0
 13 14  1  0  0  0  0
 13 15  1  0  0  0  0
 13 16  1  0  0  0  0
 16 17  1  0  0  0  0
 16 18  1  0  0  0  0
 16 19  1  0  0  0  0
 19 20  1  0  0  0  0
 19 21  1  0  0  0  0
 19 22  1  0  0  0  0
M  END
> <VConfSearch Rank>
201

> <Conf_Id>
0

> <Delta U+W>
0.000

> <U+W>
-53.159

> <U>
6.763

> <W>
-59.922

> <W(PB)>
-62.256

> <W(SA)>
2.334

> <Valence>
7.600

> <Coulomb>
-2.139

> <VdW>
1.302

> <VdW6>
-6.786

> <VdW12>
8.088

> <Bond>
0.134

> <Angle>
2.720

> <Pdih>
4.746

> <Idih>
0.000

> <Tether>
0.000

$$$$
VeraChem MOL file


 22 21  0  0  0  0  0  0  0  0999 V2000     
   19.8107   15.0447   21.3288 C   0  0  0  0  0  0  0  0  0  0  0  0
   19.6026   14.3283   22.2879 O   0  5  0  0  0  0  0  0  0  0  0  0
   20.5296   14.7338   20.3998 O   0  0  0  0  0  0  0  0  0  0  0  0
   19.1510   16.4188   21.3001 C   0  0  0  0  0  0  0  0  0  0  0  0
   18.1832   16.3429   21.8101 H   0  0  0  0  0  0  0  0  0  0  0  0
   18.9468   16.6770   20.2540 H   0  0  0  0  0  0  0  0  0  0  0  0
   20.0193   17.5170   21.9619 C   0  0  0  0  0  0  0  0  0  0  0  0
   20.2256   17.2373   23.0044 H   0  0  0  0  0  0  0  0  0  0  0  0
   20.9892   17.5714   21.4483 H   0  0  0  0  0  0  0  0  0  0  0  0
   19.3298   18.8979   21.9201 C   0  0  0  0  0  0  0  0  0  0  0  0
   18.3601   18.8398   22.4333 H   0  0  0  0  0  0  0  0  0  0  0  0
   19.1238   19.1739   20.8767 H   0  0  0  0  0  0  0  0  0  0  0  0
   20.1977   19.9906   22.5805 C   0  0  0  0  0  0  0  0  0  0  0  0
   20.4039   19.7150   23.6239 H   0  0  0  0  0  0  0  0  0  0  0  0
   21.1675   20.0491   22.0676 H   0  0  0  0  0  0  0  0  0  0  0  0
   19.5093   21.3710   22.5390 C   0  0  0  0  0  0  0  0  0  0  0  0
   18.5395   21.3170   23.0530 H   0  0  0  0  0  0  0  0  0  0  0  0
   19.3031   21.6511   21.4967 H   0  0  0  0  0  0  0  0  0  0  0  0
   20.3791   22.4594   23.1995 C   0  0  0  0  0  0  0  0  0  0  0  0
   21.3440   22.5569   22.6850 H   0  0  0  0  0  0  0  0  0  0  0  0
   20.5748   22.2202   24.2530 H   0  0  0  0  0  0  0  0  0  0  0  0
   19.8747   23.4337   23.1613 H   0  0  0  0  0  0  0  0  0  0  0  0
  1  2  1  0  0  0  0
  1  3  2  0  0  0  0
  1  4  1  0  0  0  0
  4  5  1  0  0  0  0
  4  6  1  0  0  0  0
  4  7  1  0  0  0  0
  7  8  1  0  0  0  0
  7  9  1  0  0  0  0
  7 10  1  0  0  0  0
 10 11  1  0  0  0  0
 10 12  1  0  0  0  0
 10 13  1  0  0  0  0
 13 14  1  0  0  0  0
 13 15  1  0  0  0  0
 13 16  1  0  0  0  0
 16 17  1  0  0  0  0
 16 18  1  0  0  0  0
 16 19  1  0  0  0  0
 19 20  1  0  0  0  0
 19 21  1  0  0  0  0
 19 22  1  0  0  0  0
M  END
> <VConfSearch Rank>
202

> <Conf_Id>
10

> <Delta U+W>
-1.291

> <U+W>
-54.451

> <U>
5.779

> <W>
-60.230

> <W(PB)>
-62.557

> <W(SA)>
2.328

> <Valence>
7.101

> <Coulomb>
-2.079

> <VdW>
0.757

> <VdW6>
-6.496

> <VdW12>
7.253

> <Bond>
0.100

> <Angle>
2.262

> <Pdih>
4.738

> <Idih>
0.001

> <Tether>
0.000

$$$$
VeraChem MOL file


 22 21  0  0  0  0  0  0  0  0999 V2000     
   22.9926   17.9390   20.1017 C   0  0  0  0  0  0  0  0  0  0  0  0
   22.8158   18.0848   18.9084 O   0  5  0  0  0  0  0  0  0  0  0  0
   24.0850   17.9892   20.6313 O   0  0  0  0  0  0  0  0  0  0  0  0
   21.7739   17.7009   20.9862 C   0  0  0  0  0  0  0  0  0  0  0  0
   22.0797   17.0605   21.8224 H   0  0  0  0  0  0  0  0  0  0  0  0
   21.0336   17.1406   20.4027 H   0  0  0  0  0  0  0  0  0  0  0  0
   21.1512   19.0147   21.5192 C   0  0  0  0  0  0  0  0  0  0  0  0
   21.9089   19.5698   22.0896 H   0  0  0  0  0  0  0  0  0  0  0  0
   20.8620   19.6498   20.6704 H   0  0  0  0  0  0  0  0  0  0  0  0
   19.9198   18.7467   22.4115 C   0  0  0  0  0  0  0  0  0  0  0  0
   20.2123   18.1134   23.2602 H   0  0  0  0  0  0  0  0  0  0  0  0
   19.1727   18.1860   21.8346 H   0  0  0  0  0  0  0  0  0  0  0  0
   19.2996   20.0614   22.9380 C   0  0  0  0  0  0  0  0  0  0  0  0
   20.0775   20.6429   23.4515 H   0  0  0  0  0  0  0  0  0  0  0  0
   18.9596   20.6750   22.0925 H   0  0  0  0  0  0  0  0  0  0  0  0
   18.1258   19.8376   23.9195 C   0  0  0  0  0  0  0  0  0  0  0  0
   17.8229   20.8091   24.3339 H   0  0  0  0  0  0  0  0  0  0  0  0
   18.4638   19.2294   24.7698 H   0  0  0  0  0  0  0  0  0  0  0  0
   16.8969   19.1734   23.2616 C   0  0  0  0  0  0  0  0  0  0  0  0
   16.0634   19.1181   23.9737 H   0  0  0  0  0  0  0  0  0  0  0  0
   17.1216   18.1507   22.9338 H   0  0  0  0  0  0  0  0  0  0  0  0
   16.5590   19.7486   22.3897 H   0  0  0  0  0  0  0  0  0  0  0  0
  1  2  1  0  0  0  0
  1  3  2  0  0  0  0
  1  4  1  0  0  0  0
  4  5  1  0  0  0  0
  4  6  1  0  0  0  0
  4  7  1  0  0  0  0
  7  8  1  0  0  0  0
  7  9  1  0  0  0  0
  7 10  1  0  0  0  0
 10 11  1  0  0  0  0
 10 12  1  0  0  0  0
 10 13  1  0  0  0  0
 13 14  1  0  0  0  0
 13 15  1  0  0  0  0
 13 16  1  0  0  0  0
 16 17  1  0  0  0  0
 16 18  1  0  0  0  0
 16 19  1  0  0  0  0
 19 20  1  0  0  0  0
 19 21  1  0  0  0  0
 19 22  1  0  0  0  0
M  END
> <VConfSearch Rank>
203

> <Conf_Id>
37

> <Delta U+W>
-0.345

> <U+W>
-53.504

> <U>
6.751

> <W>
-60.255

> <W(PB)>
-62.592

> <W(SA)>
2.336

> <Valence>
7.602

> <Coulomb>
-1.744

> <VdW>
0.894

> <VdW6>
-7.110

> <VdW12>
8.004

> <Bond>
0.131

> <Angle>
2.489

> <Pdih>
4.982

> <Idih>
0.001

> <Tether>
0.000

$$$$
VeraChem MOL file


 22 21  0  0  0  0  0  0  0  0999 V2000     
   16.3309   20.1758   23.5319 C   0  0  0  0  0  0  0  0  0  0  0  0
   15.8841   21.1157   22.9046 O   0  5  0  0  0  0  0  0  0  0  0  0
   16.0527   19.9481   24.6926 O   0  0  0  0  0  0  0  0  0  0  0  0
   17.3116   19.2429   22.8302 C   0  0  0  0  0  0  0  0  0  0  0  0
   17.0393   19.1982   21.7688 H   0  0  0  0  0  0  0  0  0  0  0  0
   17.1776   18.2354   23.2421 H   0  0  0  0  0  0  0  0  0  0  0  0
   18.7854   19.6921   22.9854 C   0  0  0  0  0  0  0  0  0  0  0  0
   18.9003   20.7069   22.5798 H   0  0  0  0  0  0  0  0  0  0  0  0
   19.0378   19.7449   24.0536 H   0  0  0  0  0  0  0  0  0  0  0  0
   19.7578   18.7317   22.2667 C   0  0  0  0  0  0  0  0  0  0  0  0
   19.4925   18.6808   21.2027 H   0  0  0  0  0  0  0  0  0  0  0  0
   19.6424   17.7187   22.6757 H   0  0  0  0  0  0  0  0  0  0  0  0
   21.2273   19.1866   22.4213 C   0  0  0  0  0  0  0  0  0  0  0  0
   21.3576   20.1786   21.9676 H   0  0  0  0  0  0  0  0  0  0  0  0
   21.4556   19.3008   23.4899 H   0  0  0  0  0  0  0  0  0  0  0  0
   22.2448   18.1986   21.8050 C   0  0  0  0  0  0  0  0  0  0  0  0
   22.1219   17.2065   22.2611 H   0  0  0  0  0  0  0  0  0  0  0  0
   23.2598   18.5334   22.0597 H   0  0  0  0  0  0  0  0  0  0  0  0
   22.1308   18.0821   20.2695 C   0  0  0  0  0  0  0  0  0  0  0  0
   22.2207   19.0670   19.7930 H   0  0  0  0  0  0  0  0  0  0  0  0
   21.1715   17.6410   19.9712 H   0  0  0  0  0  0  0  0  0  0  0  0
   22.9286   17.4408   19.8731 H   0  0  0  0  0  0  0  0  0  0  0  0
  1  2  1  0  0  0  0
  1  3  2  0  0  0  0
  1  4  1  0  0  0  0
  4  5  1  0  0  0  0
  4  6  1  0  0  0  0
  4  7  1  0  0  0  0
  7  8  1  0  0  0  0
  7  9  1  0  0  0  0
  7 10  1  0  0  0  0
 10 11  1  0  0  0  0
 10 12  1  0  0  0  0
 10 13  1  0  0  0  0
 13 14  1  0  0  0  0
 13 15  1  0  0  0  0
 13 16  1  0  0  0  0
 16 17  1  0  0  0  0
 16 18  1  0  0  0  0
 16 19  1  0  0  0  0
 19 20  1  0  0  0  0
 19 21  1  0  0  0  0
 19 22  1  0  0  0  0
M  END
> <VConfSearch Rank>
204

> <Conf_Id>
38

> <Delta U+W>
-0.439

> <U+W>
-53.598

> <U>
6.751

> <W>
-60.350

> <W(PB)>
-62.659

> <W(SA)>
2.309

> <Valence>
7.602

> <Coulomb>
-1.744

> <VdW>
0.893

> <VdW6>
-7.110

> <VdW12>
8.004

> <Bond>
0.131

> <Angle>
2.489

> <Pdih>
4.981

> <Idih>
0.001

> <Tether>
0.000

$$$$
VeraChem MOL file


 22 21  0  0  0  0  0  0  0  0999 V2000     
   18.5329   15.5590   22.9220 C   0  0  0  0  0  0  0  0  0  0  0  0
   17.5345   15.3435   23.5802 O   0  5  0  0  0  0  0  0  0  0  0  0
   19.3985   14.7301   22.7217 O   0  0  0  0  0  0  0  0  0  0  0  0
   18.7207   16.9531   22.3341 C   0  0  0  0  0  0  0  0  0  0  0  0
   17.7293   17.3619   22.1051 H   0  0  0  0  0  0  0  0  0  0  0  0
   19.2554   16.8440   21.3840 H   0  0  0  0  0  0  0  0  0  0  0  0
   19.4858   17.9077   23.2876 C   0  0  0  0  0  0  0  0  0  0  0  0
   18.9749   17.9157   24.2603 H   0  0  0  0  0  0  0  0  0  0  0  0
   20.4948   17.5131   23.4710 H   0  0  0  0  0  0  0  0  0  0  0  0
   19.5794   19.3619   22.7668 C   0  0  0  0  0  0  0  0  0  0  0  0
   20.0059   19.9816   23.5657 H   0  0  0  0  0  0  0  0  0  0  0  0
   18.5697   19.7503   22.5765 H   0  0  0  0  0  0  0  0  0  0  0  0
   20.4434   19.5036   21.4895 C   0  0  0  0  0  0  0  0  0  0  0  0
   21.4526   19.1136   21.6794 H   0  0  0  0  0  0  0  0  0  0  0  0
   20.0162   18.8868   20.6888 H   0  0  0  0  0  0  0  0  0  0  0  0
   20.5402   20.9579   20.9719 C   0  0  0  0  0  0  0  0  0  0  0  0
   19.5320   21.3557   20.7916 H   0  0  0  0  0  0  0  0  0  0  0  0
   21.0493   20.9510   19.9982 H   0  0  0  0  0  0  0  0  0  0  0  0
   21.3085   21.8993   21.9248 C   0  0  0  0  0  0  0  0  0  0  0  0
   20.7733   22.0359   22.8726 H   0  0  0  0  0  0  0  0  0  0  0  0
   21.4316   22.8898   21.4681 H   0  0  0  0  0  0  0  0  0  0  0  0
   22.3081   21.5033   22.1469 H   0  0  0  0  0  0  0  0  0  0  0  0
  1  2  1  0  0  0  0
  1  3  2  0  0  0  0
  1  4  1  0  0  0  0
  4  5  1  0  0  0  0
  4  6  1  0  0  0  0
  4  7  1  0  0  0  0
  7  8  1  0  0  0  0
  7  9  1  0  0  0  0
  7 10  1  0  0  0  0
 10 11  1  0  0  0  0
 10 12  1  0  0  0  0
 10 13  1  0  0  0  0
 13 14  1  0  0  0  0
 13 15  1  0  0  0  0
 13 16  1  0  0  0  0
 16 17  1  0  0  0  0
 16 18  1  0  0  0  0
 16 19  1  0  0  0  0
 19 20  1  0  0  0  0
 19 21  1  0  0  0  0
 19 22  1  0  0  0  0
M  END
> <VConfSearch Rank>
205

> <Conf_Id>
60

> <Delta U+W>
0.386

> <U+W>
-52.773

> <U>
7.689

> <W>
-60.463

> <W(PB)>
-62.772

> <W(SA)>
2.309

> <Valence>
8.197

> <Coulomb>
-1.561

> <VdW>
1.053

> <VdW6>
-7.737

> <VdW12>
8.790

> <Bond>
0.181

> <Angle>
2.780

> <Pdih>
5.235

> <Idih>
0.001

> <Tether>
0.000

$$$$
VeraChem MOL file


 22 21  0  0  0  0  0  0  0  0999 V2000     
   20.3179   22.6705   22.4455 C   0  0  0  0  0  0  0  0  0  0  0  0
   19.2460   23.2148   22.6225 O   0  5  0  0  0  0  0  0  0  0  0  0
   21.3075   23.2487   22.0420 O   0  0  0  0  0  0  0  0  0  0  0  0
   20.4210   21.1750   22.7233 C   0  0  0  0  0  0  0  0  0  0  0  0
   19.7478   20.9445   23.5565 H   0  0  0  0  0  0  0  0  0  0  0  0
   21.4423   20.9615   23.0608 H   0  0  0  0  0  0  0  0  0  0  0  0
   20.0755   20.3097   21.4834 C   0  0  0  0  0  0  0  0  0  0  0  0
   19.0348   20.4954   21.1839 H   0  0  0  0  0  0  0  0  0  0  0  0
   20.7027   20.6358   20.6421 H   0  0  0  0  0  0  0  0  0  0  0  0
   20.2940   18.7936   21.7037 C   0  0  0  0  0  0  0  0  0  0  0  0
   21.3330   18.6124   22.0108 H   0  0  0  0  0  0  0  0  0  0  0  0
   20.1618   18.2880   20.7387 H   0  0  0  0  0  0  0  0  0  0  0  0
   19.3263   18.1772   22.7437 C   0  0  0  0  0  0  0  0  0  0  0  0
   19.4596   18.6798   23.7101 H   0  0  0  0  0  0  0  0  0  0  0  0
   18.2874   18.3602   22.4374 H   0  0  0  0  0  0  0  0  0  0  0  0
   19.5420   16.6611   22.9602 C   0  0  0  0  0  0  0  0  0  0  0  0
   18.9170   16.3342   23.8027 H   0  0  0  0  0  0  0  0  0  0  0  0
   20.5834   16.4727   23.2556 H   0  0  0  0  0  0  0  0  0  0  0  0
   19.1895   15.8075   21.7226 C   0  0  0  0  0  0  0  0  0  0  0  0
   18.1628   16.0054   21.3882 H   0  0  0  0  0  0  0  0  0  0  0  0
   19.2672   14.7385   21.9595 H   0  0  0  0  0  0  0  0  0  0  0  0
   19.8698   16.0116   20.8866 H   0  0  0  0  0  0  0  0  0  0  0  0
  1  2  1  0  0  0  0
  1  3  2  0  0  0  0
  1  4  1  0  0  0  0
  4  5  1  0  0  0  0
  4  6  1  0  0  0  0
  4  7  1  0  0  0  0
  7  8  1  0  0  0  0
  7  9  1  0  0  0  0
  7 10  1  0  0  0  0
 10 11  1  0  0  0  0
 10 12  1  0  0  0  0
 10 13  1  0  0  0  0
 13 14  1  0  0  0  0
 13 15  1  0  0  0  0
 13 16  1  0  0  0  0
 16 17  1  0  0  0  0
 16 18  1  0  0  0  0
 16 19  1  0  0  0  0
 19 20  1  0  0  0  0
 19 21  1  0  0  0  0
 19 22  1  0  0  0  0
M  END
> <VConfSearch Rank>
206

> <Conf_Id>
28

> <Delta U+W>
0.351

> <U+W>
-52.808

> <U>
7.689

> <W>
-60.498

> <W(PB)>
-62.768

> <W(SA)>
2.270

> <Valence>
8.197

> <Coulomb>
-1.561

> <VdW>
1.053

> <VdW6>
-7.737

> <VdW12>
8.791

> <Bond>
0.181

> <Angle>
2.780

> <Pdih>
5.235

> <Idih>
0.001

> <Tether>
0.000

$$$$
VeraChem MOL file


 22 21  0  0  0  0  0  0  0  0999 V2000     
   16.8120   16.8093   22.1549 C   0  0  0  0  0  0  0  0  0  0  0  0
   16.0794   16.8627   23.1228 O   0  5  0  0  0  0  0  0  0  0  0  0
   16.4122   16.8081   21.0075 O   0  0  0  0  0  0  0  0  0  0  0  0
   18.3171   16.7611   22.3930 C   0  0  0  0  0  0  0  0  0  0  0  0
   18.7714   16.1748   21.5852 H   0  0  0  0  0  0  0  0  0  0  0  0
   18.4966   16.2179   23.3286 H   0  0  0  0  0  0  0  0  0  0  0  0
   18.9611   18.1680   22.4588 C   0  0  0  0  0  0  0  0  0  0  0  0
   18.7508   18.6983   21.5207 H   0  0  0  0  0  0  0  0  0  0  0  0
   18.4896   18.7452   23.2661 H   0  0  0  0  0  0  0  0  0  0  0  0
   20.4871   18.0894   22.6960 C   0  0  0  0  0  0  0  0  0  0  0  0
   20.9651   17.5578   21.8618 H   0  0  0  0  0  0  0  0  0  0  0  0
   20.6778   17.4900   23.5967 H   0  0  0  0  0  0  0  0  0  0  0  0
   21.1545   19.4732   22.8784 C   0  0  0  0  0  0  0  0  0  0  0  0
   20.6794   20.0035   23.7150 H   0  0  0  0  0  0  0  0  0  0  0  0
   22.2038   19.3184   23.1647 H   0  0  0  0  0  0  0  0  0  0  0  0
   21.1060   20.3533   21.6090 C   0  0  0  0  0  0  0  0  0  0  0  0
   20.0649   20.5859   21.3492 H   0  0  0  0  0  0  0  0  0  0  0  0
   21.5334   19.8026   20.7596 H   0  0  0  0  0  0  0  0  0  0  0  0
   21.8800   21.6723   21.8057 C   0  0  0  0  0  0  0  0  0  0  0  0
   22.9372   21.4783   22.0296 H   0  0  0  0  0  0  0  0  0  0  0  0
   21.4558   22.2566   22.6327 H   0  0  0  0  0  0  0  0  0  0  0  0
   21.8336   22.2871   20.8974 H   0  0  0  0  0  0  0  0  0  0  0  0
  1  2  1  0  0  0  0
  1  3  2  0  0  0  0
  1  4  1  0  0  0  0
  4  5  1  0  0  0  0
  4  6  1  0  0  0  0
  4  7  1  0  0  0  0
  7  8  1  0  0  0  0
  7  9  1  0  0  0  0
  7 10  1  0  0  0  0
 10 11  1  0  0  0  0
 10 12  1  0  0  0  0
 10 13  1  0  0  0  0
 13 14  1  0  0  0  0
 13 15  1  0  0  0  0
 13 16  1  0  0  0  0
 16 17  1  0  0  0  0
 16 18  1  0  0  0  0
 16 19  1  0  0  0  0
 19 20  1  0  0  0  0
 19 21  1  0  0  0  0
 19 22  1  0  0  0  0
M  END
> <VConfSearch Rank>
207

> <Conf_Id>
50

> <Delta U+W>
-0.486

> <U+W>
-53.646

> <U>
7.026

> <W>
-60.672

> <W(PB)>
-62.964

> <W(SA)>
2.292

> <Valence>
7.637

> <Coulomb>
-1.488

> <VdW>
0.877

> <VdW6>
-7.165

> <VdW12>
8.043

> <Bond>
0.134

> <Angle>
2.513

> <Pdih>
4.990

> <Idih>
0.001

> <Tether>
0.000

$$$$
VeraChem MOL file


 22 21  0  0  0  0  0  0  0  0999 V2000     
   16.7883   16.7308   22.1805 C   0  0  0  0  0  0  0  0  0  0  0  0
   16.0713   16.7248   23.1615 O   0  5  0  0  0  0  0  0  0  0  0  0
   17.1194   15.7260   21.5827 O   0  0  0  0  0  0  0  0  0  0  0  0
   17.3183   18.0714   21.6843 C   0  0  0  0  0  0  0  0  0  0  0  0
   16.5608   18.8359   21.8946 H   0  0  0  0  0  0  0  0  0  0  0  0
   17.4262   18.0129   20.5945 H   0  0  0  0  0  0  0  0  0  0  0  0
   18.6684   18.4624   22.3343 C   0  0  0  0  0  0  0  0  0  0  0  0
   18.5460   18.5078   23.4252 H   0  0  0  0  0  0  0  0  0  0  0  0
   19.4033   17.6734   22.1269 H   0  0  0  0  0  0  0  0  0  0  0  0
   19.1844   19.8225   21.8101 C   0  0  0  0  0  0  0  0  0  0  0  0
   18.4038   20.5813   21.9579 H   0  0  0  0  0  0  0  0  0  0  0  0
   19.3570   19.7612   20.7268 H   0  0  0  0  0  0  0  0  0  0  0  0
   20.4753   20.3046   22.5135 C   0  0  0  0  0  0  0  0  0  0  0  0
   20.6970   21.3251   22.1725 H   0  0  0  0  0  0  0  0  0  0  0  0
   20.3019   20.3699   23.5964 H   0  0  0  0  0  0  0  0  0  0  0  0
   21.7014   19.4059   22.2355 C   0  0  0  0  0  0  0  0  0  0  0  0
   21.8433   19.2975   21.1514 H   0  0  0  0  0  0  0  0  0  0  0  0
   21.5319   18.3990   22.6391 H   0  0  0  0  0  0  0  0  0  0  0  0
   22.9833   19.9884   22.8639 C   0  0  0  0  0  0  0  0  0  0  0  0
   22.8789   20.0821   23.9528 H   0  0  0  0  0  0  0  0  0  0  0  0
   23.2059   20.9822   22.4539 H   0  0  0  0  0  0  0  0  0  0  0  0
   23.8438   19.3377   22.6607 H   0  0  0  0  0  0  0  0  0  0  0  0
  1  2  1  0  0  0  0
  1  3  2  0  0  0  0
  1  4  1  0  0  0  0
  4  5  1  0  0  0  0
  4  6  1  0  0  0  0
  4  7  1  0  0  0  0
  7  8  1  0  0  0  0
  7  9  1  0  0  0  0
  7 10  1  0  0  0  0
 10 11  1  0  0  0  0
 10 12  1  0  0  0  0
 10 13  1  0  0  0  0
 13 14  1  0  0  0  0
 13 15  1  0  0  0  0
 13 16  1  0  0  0  0
 16 17  1  0  0  0  0
 16 18  1  0  0  0  0
 16 19  1  0  0  0  0
 19 20  1  0  0  0  0
 19 21  1  0  0  0  0
 19 22  1  0  0  0  0
M  END
> <VConfSearch Rank>
208

> <Conf_Id>
51

> <Delta U+W>
-0.517

> <U+W>
-53.677

> <U>
7.026

> <W>
-60.703

> <W(PB)>
-63.007

> <W(SA)>
2.304

> <Valence>
7.638

> <Coulomb>
-1.488

> <VdW>
0.877

> <VdW6>
-7.165

> <VdW12>
8.042

> <Bond>
0.134

> <Angle>
2.513

> <Pdih>
4.990

> <Idih>
0.001

> <Tether>
0.000

$$$$
VeraChem MOL file


 22 21  0  0  0  0  0  0  0  0999 V2000     
   22.6067   20.9848   23.1544 C   0  0  0  0  0  0  0  0  0  0  0  0
   23.6828   20.5778   22.7630 O   0  5  0  0  0  0  0  0  0  0  0  0
   22.1109   22.0325   22.7893 O   0  0  0  0  0  0  0  0  0  0  0  0
   21.8470   20.1416   24.1747 C   0  0  0  0  0  0  0  0  0  0  0  0
   21.1045   20.7779   24.6715 H   0  0  0  0  0  0  0  0  0  0  0  0
   22.5646   19.8317   24.9435 H   0  0  0  0  0  0  0  0  0  0  0  0
   21.1607   18.8885   23.5716 C   0  0  0  0  0  0  0  0  0  0  0  0
   21.9119   18.2760   23.0536 H   0  0  0  0  0  0  0  0  0  0  0  0
   20.7601   18.2735   24.3888 H   0  0  0  0  0  0  0  0  0  0  0  0
   20.0168   19.2486   22.5972 C   0  0  0  0  0  0  0  0  0  0  0  0
   20.4131   19.8499   21.7672 H   0  0  0  0  0  0  0  0  0  0  0  0
   19.2754   19.8716   23.1159 H   0  0  0  0  0  0  0  0  0  0  0  0
   19.3277   17.9873   22.0334 C   0  0  0  0  0  0  0  0  0  0  0  0
   20.0698   17.3648   21.5148 H   0  0  0  0  0  0  0  0  0  0  0  0
   18.9280   17.3858   22.8614 H   0  0  0  0  0  0  0  0  0  0  0  0
   18.1857   18.3461   21.0596 C   0  0  0  0  0  0  0  0  0  0  0  0
   18.5822   18.9464   20.2290 H   0  0  0  0  0  0  0  0  0  0  0  0
   17.4406   18.9675   21.5754 H   0  0  0  0  0  0  0  0  0  0  0  0
   17.5004   17.0841   20.4983 C   0  0  0  0  0  0  0  0  0  0  0  0
   18.2172   16.4591   19.9496 H   0  0  0  0  0  0  0  0  0  0  0  0
   16.6916   17.3576   19.8082 H   0  0  0  0  0  0  0  0  0  0  0  0
   17.0670   16.4802   21.3062 H   0  0  0  0  0  0  0  0  0  0  0  0
  1  2  1  0  0  0  0
  1  3  2  0  0  0  0
  1  4  1  0  0  0  0
  4  5  1  0  0  0  0
  4  6  1  0  0  0  0
  4  7  1  0  0  0  0
  7  8  1  0  0  0  0
  7  9  1  0  0  0  0
  7 10  1  0  0  0  0
 10 11  1  0  0  0  0
 10 12  1  0  0  0  0
 10 13  1  0  0  0  0
 13 14  1  0  0  0  0
 13 15  1  0  0  0  0
 13 16  1  0  0  0  0
 16 17  1  0  0  0  0
 16 18  1  0  0  0  0
 16 19  1  0  0  0  0
 19 20  1  0  0  0  0
 19 21  1  0  0  0  0
 19 22  1  0  0  0  0
M  END
> <VConfSearch Rank>
209

> <Conf_Id>
43

> <Delta U+W>
-0.129

> <U+W>
-53.289

> <U>
7.937

> <W>
-61.225

> <W(PB)>
-63.523

> <W(SA)>
2.297

> <Valence>
7.358

> <Coulomb>
-0.022

> <VdW>
0.601

> <VdW6>
-7.363

> <VdW12>
7.964

> <Bond>
0.121

> <Angle>
2.425

> <Pdih>
4.811

> <Idih>
0.000

> <Tether>
0.000

$$$$
VeraChem MOL file


 22 21  0  0  0  0  0  0  0  0999 V2000     
   19.5120   20.8080   19.3479 C   0  0  0  0  0  0  0  0  0  0  0  0
   19.0740   21.9346   19.4734 O   0  5  0  0  0  0  0  0  0  0  0  0
   18.9742   19.9483   18.6783 O   0  0  0  0  0  0  0  0  0  0  0  0
   20.8189   20.4617   20.0559 C   0  0  0  0  0  0  0  0  0  0  0  0
   21.5195   21.2847   19.8721 H   0  0  0  0  0  0  0  0  0  0  0  0
   21.2470   19.5690   19.5839 H   0  0  0  0  0  0  0  0  0  0  0  0
   20.6693   20.2402   21.5835 C   0  0  0  0  0  0  0  0  0  0  0  0
   21.6682   20.1347   22.0278 H   0  0  0  0  0  0  0  0  0  0  0  0
   20.2136   21.1313   22.0375 H   0  0  0  0  0  0  0  0  0  0  0  0
   19.8261   18.9906   21.9230 C   0  0  0  0  0  0  0  0  0  0  0  0
   20.2783   18.1049   21.4561 H   0  0  0  0  0  0  0  0  0  0  0  0
   18.8192   19.0964   21.4961 H   0  0  0  0  0  0  0  0  0  0  0  0
   19.7166   18.7718   23.4473 C   0  0  0  0  0  0  0  0  0  0  0  0
   20.7222   18.6628   23.8762 H   0  0  0  0  0  0  0  0  0  0  0  0
   19.2642   19.6579   23.9135 H   0  0  0  0  0  0  0  0  0  0  0  0
   18.8741   17.5245   23.7872 C   0  0  0  0  0  0  0  0  0  0  0  0
   19.3245   16.6357   23.3238 H   0  0  0  0  0  0  0  0  0  0  0  0
   17.8667   17.6307   23.3612 H   0  0  0  0  0  0  0  0  0  0  0  0
   18.7664   17.3094   25.3102 C   0  0  0  0  0  0  0  0  0  0  0  0
   19.7588   17.1688   25.7581 H   0  0  0  0  0  0  0  0  0  0  0  0
   18.1644   16.4190   25.5335 H   0  0  0  0  0  0  0  0  0  0  0  0
   18.2900   18.1712   25.7958 H   0  0  0  0  0  0  0  0  0  0  0  0
  1  2  1  0  0  0  0
  1  3  2  0  0  0  0
  1  4  1  0  0  0  0
  4  5  1  0  0  0  0
  4  6  1  0  0  0  0
  4  7  1  0  0  0  0
  7  8  1  0  0  0  0
  7  9  1  0  0  0  0
  7 10  1  0  0  0  0
 10 11  1  0  0  0  0
 10 12  1  0  0  0  0
 10 13  1  0  0  0  0
 13 14  1  0  0  0  0
 13 15  1  0  0  0  0
 13 16  1  0  0  0  0
 16 17  1  0  0  0  0
 16 18  1  0  0  0  0
 16 19  1  0  0  0  0
 19 20  1  0  0  0  0
 19 21  1  0  0  0  0
 19 22  1  0  0  0  0
M  END
> <VConfSearch Rank>
210

> <Conf_Id>
44

> <Delta U+W>
-0.155

> <U+W>
-53.314

> <U>
7.937

> <W>
-61.252

> <W(PB)>
-63.556

> <W(SA)>
2.304

> <Valence>
7.358

> <Coulomb>
-0.021

> <VdW>
0.600

> <VdW6>
-7.363

> <VdW12>
7.964

> <Bond>
0.121

> <Angle>
2.425

> <Pdih>
4.811

> <Idih>
0.001

> <Tether>
0.000

$$$$
VeraChem MOL file


 22 21  0  0  0  0  0  0  0  0999 V2000     
   18.1847   16.7164   24.4864 C   0  0  0  0  0  0  0  0  0  0  0  0
   18.9575   15.8483   24.8416 O   0  5  0  0  0  0  0  0  0  0  0  0
   17.0764   16.4892   24.0427 O   0  0  0  0  0  0  0  0  0  0  0  0
   18.6248   18.1713   24.6238 C   0  0  0  0  0  0  0  0  0  0  0  0
   19.0672   18.2863   25.6203 H   0  0  0  0  0  0  0  0  0  0  0  0
   17.7344   18.8111   24.5961 H   0  0  0  0  0  0  0  0  0  0  0  0
   19.6456   18.6277   23.5489 C   0  0  0  0  0  0  0  0  0  0  0  0
   20.0144   19.6246   23.8213 H   0  0  0  0  0  0  0  0  0  0  0  0
   20.5131   17.9535   23.5616 H   0  0  0  0  0  0  0  0  0  0  0  0
   19.0334   18.6685   22.1281 C   0  0  0  0  0  0  0  0  0  0  0  0
   18.1924   19.3750   22.1069 H   0  0  0  0  0  0  0  0  0  0  0  0
   18.6140   17.6818   21.8879 H   0  0  0  0  0  0  0  0  0  0  0  0
   20.0539   19.0437   21.0273 C   0  0  0  0  0  0  0  0  0  0  0  0
   20.8947   18.3371   21.0491 H   0  0  0  0  0  0  0  0  0  0  0  0
   19.5701   18.9204   20.0487 H   0  0  0  0  0  0  0  0  0  0  0  0
   20.5851   20.4903   21.1445 C   0  0  0  0  0  0  0  0  0  0  0  0
   21.1433   20.6141   22.0817 H   0  0  0  0  0  0  0  0  0  0  0  0
   19.7415   21.1934   21.1778 H   0  0  0  0  0  0  0  0  0  0  0  0
   21.5062   20.8515   19.9617 C   0  0  0  0  0  0  0  0  0  0  0  0
   22.3738   20.1800   19.9207 H   0  0  0  0  0  0  0  0  0  0  0  0
   21.8777   21.8797   20.0609 H   0  0  0  0  0  0  0  0  0  0  0  0
   20.9687   20.7762   19.0074 H   0  0  0  0  0  0  0  0  0  0  0  0
  1  2  1  0  0  0  0
  1  3  2  0  0  0  0
  1  4  1  0  0  0  0
  4  5  1  0  0  0  0
  4  6  1  0  0  0  0
  4  7  1  0  0  0  0
  7  8  1  0  0  0  0
  7  9  1  0  0  0  0
  7 10  1  0  0  0  0
 10 11  1  0  0  0  0
 10 12  1  0  0  0  0
 10 13  1  0  0  0  0
 13 14  1  0  0  0  0
 13 15  1  0  0  0  0
 13 16  1  0  0  0  0
 16 17  1  0  0  0  0
 16 18  1  0  0  0  0
 16 19  1  0  0  0  0
 19 20  1  0  0  0  0
 19 21  1  0  0  0  0
 19 22  1  0  0  0  0
M  END
> <VConfSearch Rank>
211

> <Conf_Id>
53

> <Delta U+W>
0.723

> <U+W>
-52.436

> <U>
8.587

> <W>
-61.022

> <W(PB)>
-63.285

> <W(SA)>
2.263

> <Valence>
7.933

> <Coulomb>
-0.124

> <VdW>
0.778

> <VdW6>
-7.981

> <VdW12>
8.759

> <Bond>
0.160

> <Angle>
2.698

> <Pdih>
5.074

> <Idih>
0.001

> <Tether>
0.000

$$$$
VeraChem MOL file


 22 21  0  0  0  0  0  0  0  0999 V2000     
   21.3641   16.2395   23.3797 C   0  0  0  0  0  0  0  0  0  0  0  0
   20.8031   15.2605   22.9288 O   0  5  0  0  0  0  0  0  0  0  0  0
   22.3885   16.1872   24.0312 O   0  0  0  0  0  0  0  0  0  0  0  0
   20.7622   17.6106   23.0936 C   0  0  0  0  0  0  0  0  0  0  0  0
   20.9974   18.2692   23.9381 H   0  0  0  0  0  0  0  0  0  0  0  0
   19.6733   17.4934   23.0587 H   0  0  0  0  0  0  0  0  0  0  0  0
   21.2799   18.2292   21.7705 C   0  0  0  0  0  0  0  0  0  0  0  0
   22.3785   18.2073   21.7780 H   0  0  0  0  0  0  0  0  0  0  0  0
   20.9658   17.5966   20.9288 H   0  0  0  0  0  0  0  0  0  0  0  0
   20.8194   19.6879   21.5242 C   0  0  0  0  0  0  0  0  0  0  0  0
   21.2855   20.0282   20.5894 H   0  0  0  0  0  0  0  0  0  0  0  0
   21.2134   20.3460   22.3106 H   0  0  0  0  0  0  0  0  0  0  0  0
   19.2857   19.8671   21.3915 C   0  0  0  0  0  0  0  0  0  0  0  0
   19.0898   20.6393   20.6350 H   0  0  0  0  0  0  0  0  0  0  0  0
   18.8293   18.9434   21.0102 H   0  0  0  0  0  0  0  0  0  0  0  0
   18.6031   20.3015   22.7091 C   0  0  0  0  0  0  0  0  0  0  0  0
   19.0303   21.2556   23.0471 H   0  0  0  0  0  0  0  0  0  0  0  0
   18.7976   19.5717   23.5040 H   0  0  0  0  0  0  0  0  0  0  0  0
   17.0799   20.4613   22.5305 C   0  0  0  0  0  0  0  0  0  0  0  0
   16.8506   21.2169   21.7679 H   0  0  0  0  0  0  0  0  0  0  0  0
   16.6111   20.7764   23.4718 H   0  0  0  0  0  0  0  0  0  0  0  0
   16.6195   19.5131   22.2234 H   0  0  0  0  0  0  0  0  0  0  0  0
  1  2  1  0  0  0  0
  1  3  2  0  0  0  0
  1  4  1  0  0  0  0
  4  5  1  0  0  0  0
  4  6  1  0  0  0  0
  4  7  1  0  0  0  0
  7  8  1  0  0  0  0
  7  9  1  0  0  0  0
  7 10  1  0  0  0  0
 10 11  1  0  0  0  0
 10 12  1  0  0  0  0
 10 13  1  0  0  0  0
 13 14  1  0  0  0  0
 13 15  1  0  0  0  0
 13 16  1  0  0  0  0
 16 17  1  0  0  0  0
 16 18  1  0  0  0  0
 16 19  1  0  0  0  0
 19 20  1  0  0  0  0
 19 21  1  0  0  0  0
 19 22  1  0  0  0  0
M  END
> <VConfSearch Rank>
212

> <Conf_Id>
5

> <Delta U+W>
2.167

> <U+W>
-50.993

> <U>
10.045

> <W>
-61.037

> <W(PB)>
-63.303

> <W(SA)>
2.266

> <Valence>
10.100

> <Coulomb>
-0.883

> <VdW>
0.828

> <VdW6>
-8.177

> <VdW12>
9.005

> <Bond>
0.182

> <Angle>
2.988

> <Pdih>
6.930

> <Idih>
0.001

> <Tether>
0.000

$$$$
VeraChem MOL file


 22 21  0  0  0  0  0  0  0  0999 V2000     
   19.3333   18.8933   25.6505 C   0  0  0  0  0  0  0  0  0  0  0  0
   20.2381   19.4888   26.2012 O   0  5  0  0  0  0  0  0  0  0  0  0
   18.4375   18.3297   26.2476 O   0  0  0  0  0  0  0  0  0  0  0  0
   19.3341   18.8303   24.1273 C   0  0  0  0  0  0  0  0  0  0  0  0
   19.7606   19.7694   23.7573 H   0  0  0  0  0  0  0  0  0  0  0  0
   18.2928   18.7831   23.7873 H   0  0  0  0  0  0  0  0  0  0  0  0
   20.1334   17.6222   23.5770 C   0  0  0  0  0  0  0  0  0  0  0  0
   21.1896   17.7286   23.8603 H   0  0  0  0  0  0  0  0  0  0  0  0
   19.7737   16.7084   24.0699 H   0  0  0  0  0  0  0  0  0  0  0  0
   20.0239   17.4289   22.0436 C   0  0  0  0  0  0  0  0  0  0  0  0
   18.9819   17.2230   21.7626 H   0  0  0  0  0  0  0  0  0  0  0  0
   20.5874   16.5223   21.7838 H   0  0  0  0  0  0  0  0  0  0  0  0
   20.5854   18.6034   21.2029 C   0  0  0  0  0  0  0  0  0  0  0  0
   21.3761   19.1231   21.7613 H   0  0  0  0  0  0  0  0  0  0  0  0
   21.0663   18.1904   20.3056 H   0  0  0  0  0  0  0  0  0  0  0  0
   19.4995   19.6056   20.7477 C   0  0  0  0  0  0  0  0  0  0  0  0
   18.9711   20.0225   21.6133 H   0  0  0  0  0  0  0  0  0  0  0  0
   18.7468   19.0818   20.1424 H   0  0  0  0  0  0  0  0  0  0  0  0
   20.1047   20.7579   19.9210 C   0  0  0  0  0  0  0  0  0  0  0  0
   20.8389   21.3209   20.5119 H   0  0  0  0  0  0  0  0  0  0  0  0
   19.3211   21.4563   19.5994 H   0  0  0  0  0  0  0  0  0  0  0  0
   20.6075   20.3757   19.0230 H   0  0  0  0  0  0  0  0  0  0  0  0
  1  2  1  0  0  0  0
  1  3  2  0  0  0  0
  1  4  1  0  0  0  0
  4  5  1  0  0  0  0
  4  6  1  0  0  0  0
  4  7  1  0  0  0  0
  7  8  1  0  0  0  0
  7  9  1  0  0  0  0
  7 10  1  0  0  0  0
 10 11  1  0  0  0  0
 10 12  1  0  0  0  0
 10 13  1  0  0  0  0
 13 14  1  0  0  0  0
 13 15  1  0  0  0  0
 13 16  1  0  0  0  0
 16 17  1  0  0  0  0
 16 18  1  0  0  0  0
 16 19  1  0  0  0  0
 19 20  1  0  0  0  0
 19 21  1  0  0  0  0
 19 22  1  0  0  0  0
M  END
> <VConfSearch Rank>
213

> <Conf_Id>
6

> <Delta U+W>
2.118

> <U+W>
-51.042

> <U>
10.045

> <W>
-61.086

> <W(PB)>
-63.356

> <W(SA)>
2.270

> <Valence>
10.100

> <Coulomb>
-0.883

> <VdW>
0.828

> <VdW6>
-8.177

> <VdW12>
9.004

> <Bond>
0.182

> <Angle>
2.988

> <Pdih>
6.930

> <Idih>
0.001

> <Tether>
0.000

$$$$
VeraChem MOL file


 22 21  0  0  0  0  0  0  0  0999 V2000     
   20.3687   21.1546   24.0384 C   0  0  0  0  0  0  0  0  0  0  0  0
   20.2035   22.1168   23.3144 O   0  5  0  0  0  0  0  0  0  0  0  0
   21.4642   20.7415   24.3647 O   0  0  0  0  0  0  0  0  0  0  0  0
   19.1366   20.4700   24.6272 C   0  0  0  0  0  0  0  0  0  0  0  0
   18.6410   21.2171   25.2579 H   0  0  0  0  0  0  0  0  0  0  0  0
   19.4618   19.6625   25.2942 H   0  0  0  0  0  0  0  0  0  0  0  0
   18.1159   19.9303   23.5860 C   0  0  0  0  0  0  0  0  0  0  0  0
   17.1485   19.8085   24.0916 H   0  0  0  0  0  0  0  0  0  0  0  0
   17.9529   20.6790   22.7983 H   0  0  0  0  0  0  0  0  0  0  0  0
   18.4922   18.5674   22.9538 C   0  0  0  0  0  0  0  0  0  0  0  0
   17.6355   18.2170   22.3620 H   0  0  0  0  0  0  0  0  0  0  0  0
   18.6455   17.8220   23.7461 H   0  0  0  0  0  0  0  0  0  0  0  0
   19.7381   18.6187   22.0408 C   0  0  0  0  0  0  0  0  0  0  0  0
   19.6284   19.4335   21.3120 H   0  0  0  0  0  0  0  0  0  0  0  0
   20.6305   18.8409   22.6394 H   0  0  0  0  0  0  0  0  0  0  0  0
   19.9549   17.2844   21.2960 C   0  0  0  0  0  0  0  0  0  0  0  0
   19.0719   17.0527   20.6844 H   0  0  0  0  0  0  0  0  0  0  0  0
   20.0631   16.4682   22.0236 H   0  0  0  0  0  0  0  0  0  0  0  0
   21.2036   17.3347   20.3928 C   0  0  0  0  0  0  0  0  0  0  0  0
   21.1082   18.1233   19.6349 H   0  0  0  0  0  0  0  0  0  0  0  0
   21.3434   16.3786   19.8719 H   0  0  0  0  0  0  0  0  0  0  0  0
   22.1072   17.5348   20.9835 H   0  0  0  0  0  0  0  0  0  0  0  0
  1  2  1  0  0  0  0
  1  3  2  0  0  0  0
  1  4  1  0  0  0  0
  4  5  1  0  0  0  0
  4  6  1  0  0  0  0
  4  7  1  0  0  0  0
  7  8  1  0  0  0  0
  7  9  1  0  0  0  0
  7 10  1  0  0  0  0
 10 11  1  0  0  0  0
 10 12  1  0  0  0  0
 10 13  1  0  0  0  0
 13 14  1  0  0  0  0
 13 15  1  0  0  0  0
 13 16  1  0  0  0  0
 16 17  1  0  0  0  0
 16 18  1  0  0  0  0
 16 19  1  0  0  0  0
 19 20  1  0  0  0  0
 19 21  1  0  0  0  0
 19 22  1  0  0  0  0
M  END
> <VConfSearch Rank>
214

> <Conf_Id>
8

> <Delta U+W>
1.886

> <U+W>
-51.274

> <U>
11.237

> <W>
-62.510

> <W(PB)>
-64.777

> <W(SA)>
2.267

> <Valence>
9.029

> <Coulomb>
1.667

> <VdW>
0.540

> <VdW6>
-8.825

> <VdW12>
9.365

> <Bond>
0.186

> <Angle>
3.195

> <Pdih>
5.642

> <Idih>
0.007

> <Tether>
0.000

$$$$
VeraChem MOL file


 22 21  0  0  0  0  0  0  0  0999 V2000     
   22.2802   17.3313   22.8903 C   0  0  0  0  0  0  0  0  0  0  0  0
   22.8304   18.3420   23.2811 O   0  5  0  0  0  0  0  0  0  0  0  0
   22.7755   16.5635   22.0887 O   0  0  0  0  0  0  0  0  0  0  0  0
   20.9053   16.9900   23.4580 C   0  0  0  0  0  0  0  0  0  0  0  0
   20.7298   17.6053   24.3476 H   0  0  0  0  0  0  0  0  0  0  0  0
   20.9454   15.9507   23.8044 H   0  0  0  0  0  0  0  0  0  0  0  0
   19.7411   17.1470   22.4417 C   0  0  0  0  0  0  0  0  0  0  0  0
   19.9122   16.4576   21.6034 H   0  0  0  0  0  0  0  0  0  0  0  0
   18.8033   16.8272   22.9156 H   0  0  0  0  0  0  0  0  0  0  0  0
   19.5651   18.5790   21.8787 C   0  0  0  0  0  0  0  0  0  0  0  0
   18.7841   18.5462   21.1087 H   0  0  0  0  0  0  0  0  0  0  0  0
   20.4872   18.8941   21.3714 H   0  0  0  0  0  0  0  0  0  0  0  0
   19.1832   19.6226   22.9570 C   0  0  0  0  0  0  0  0  0  0  0  0
   18.2724   19.3012   23.4800 H   0  0  0  0  0  0  0  0  0  0  0  0
   19.9785   19.6709   23.7120 H   0  0  0  0  0  0  0  0  0  0  0  0
   18.9792   21.0464   22.3886 C   0  0  0  0  0  0  0  0  0  0  0  0
   19.8836   21.3642   21.8515 H   0  0  0  0  0  0  0  0  0  0  0  0
   18.8559   21.7449   23.2277 H   0  0  0  0  0  0  0  0  0  0  0  0
   17.7515   21.1676   21.4598 C   0  0  0  0  0  0  0  0  0  0  0  0
   17.8813   20.5792   20.5431 H   0  0  0  0  0  0  0  0  0  0  0  0
   17.5970   22.2131   21.1632 H   0  0  0  0  0  0  0  0  0  0  0  0
   16.8405   20.8220   21.9656 H   0  0  0  0  0  0  0  0  0  0  0  0
  1  2  1  0  0  0  0
  1  3  2  0  0  0  0
  1  4  1  0  0  0  0
  4  5  1  0  0  0  0
  4  6  1  0  0  0  0
  4  7  1  0  0  0  0
  7  8  1  0  0  0  0
  7  9  1  0  0  0  0
  7 10  1  0  0  0  0
 10 11  1  0  0  0  0
 10 12  1  0  0  0  0
 10 13  1  0  0  0  0
 13 14  1  0  0  0  0
 13 15  1  0  0  0  0
 13 16  1  0  0  0  0
 16 17  1  0  0  0  0
 16 18  1  0  0  0  0
 16 19  1  0  0  0  0
 19 20  1  0  0  0  0
 19 21  1  0  0  0  0
 19 22  1  0  0  0  0
M  END
> <VConfSearch Rank>
215

> <Conf_Id>
93

> <Delta U+W>
1.836

> <U+W>
-51.323

> <U>
10.427

> <W>
-61.751

> <W(PB)>
-63.980

> <W(SA)>
2.230

> <Valence>
8.446

> <Coulomb>
1.306

> <VdW>
0.676

> <VdW6>
-8.928

> <VdW12>
9.604

> <Bond>
0.209

> <Angle>
3.066

> <Pdih>
5.170

> <Idih>
0.001

> <Tether>
0.000

$$$$
VeraChem MOL file


 22 21  0  0  0  0  0  0  0  0999 V2000     
   22.6652   18.2852   22.8128 C   0  0  0  0  0  0  0  0  0  0  0  0
   23.4619   18.8252   23.5550 O   0  5  0  0  0  0  0  0  0  0  0  0
   22.7932   18.2438   21.6051 O   0  0  0  0  0  0  0  0  0  0  0  0
   21.4544   17.5964   23.4363 C   0  0  0  0  0  0  0  0  0  0  0  0
   21.8264   16.9469   24.2373 H   0  0  0  0  0  0  0  0  0  0  0  0
   21.0021   16.9356   22.6883 H   0  0  0  0  0  0  0  0  0  0  0  0
   20.3968   18.5739   24.0186 C   0  0  0  0  0  0  0  0  0  0  0  0
   19.5941   17.9948   24.4946 H   0  0  0  0  0  0  0  0  0  0  0  0
   20.8667   19.1628   24.8185 H   0  0  0  0  0  0  0  0  0  0  0  0
   19.7788   19.5465   22.9838 C   0  0  0  0  0  0  0  0  0  0  0  0
   20.5712   20.1556   22.5277 H   0  0  0  0  0  0  0  0  0  0  0  0
   19.1248   20.2433   23.5231 H   0  0  0  0  0  0  0  0  0  0  0  0
   18.9690   18.8325   21.8739 C   0  0  0  0  0  0  0  0  0  0  0  0
   19.6322   18.1552   21.3204 H   0  0  0  0  0  0  0  0  0  0  0  0
   18.1880   18.2068   22.3268 H   0  0  0  0  0  0  0  0  0  0  0  0
   18.3281   19.8067   20.8580 C   0  0  0  0  0  0  0  0  0  0  0  0
   17.9000   19.2215   20.0325 H   0  0  0  0  0  0  0  0  0  0  0  0
   19.1055   20.4445   20.4150 H   0  0  0  0  0  0  0  0  0  0  0  0
   17.2162   20.6876   21.4684 C   0  0  0  0  0  0  0  0  0  0  0  0
   17.6183   21.3809   22.2174 H   0  0  0  0  0  0  0  0  0  0  0  0
   16.4450   20.0708   21.9478 H   0  0  0  0  0  0  0  0  0  0  0  0
   16.7313   21.2882   20.6879 H   0  0  0  0  0  0  0  0  0  0  0  0
  1  2  1  0  0  0  0
  1  3  2  0  0  0  0
  1  4  1  0  0  0  0
  4  5  1  0  0  0  0
  4  6  1  0  0  0  0
  4  7  1  0  0  0  0
  7  8  1  0  0  0  0
  7  9  1  0  0  0  0
  7 10  1  0  0  0  0
 10 11  1  0  0  0  0
 10 12  1  0  0  0  0
 10 13  1  0  0  0  0
 13 14  1  0  0  0  0
 13 15  1  0  0  0  0
 13 16  1  0  0  0  0
 16 17  1  0  0  0  0
 16 18  1  0  0  0  0
 16 19  1  0  0  0  0
 19 20  1  0  0  0  0
 19 21  1  0  0  0  0
 19 22  1  0  0  0  0
M  END
> <VConfSearch Rank>
216

> <Conf_Id>
70

> <Delta U+W>
1.803

> <U+W>
-51.356

> <U>
10.428

> <W>
-61.784

> <W(PB)>
-64.014

> <W(SA)>
2.230

> <Valence>
8.445

> <Coulomb>
1.306

> <VdW>
0.676

> <VdW6>
-8.929

> <VdW12>
9.605

> <Bond>
0.209

> <Angle>
3.066

> <Pdih>
5.170

> <Idih>
0.001

> <Tether>
0.000

$$$$
VeraChem MOL file


 22 21  0  0  0  0  0  0  0  0999 V2000     
   18.3139   21.9251   21.5152 C   0  0  0  0  0  0  0  0  0  0  0  0
   17.1651   21.8274   21.8995 O   0  5  0  0  0  0  0  0  0  0  0  0
   18.6196   22.1635   20.3634 O   0  0  0  0  0  0  0  0  0  0  0  0
   19.4317   21.7601   22.5410 C   0  0  0  0  0  0  0  0  0  0  0  0
   19.1507   22.3385   23.4290 H   0  0  0  0  0  0  0  0  0  0  0  0
   20.3447   22.2171   22.1406 H   0  0  0  0  0  0  0  0  0  0  0  0
   19.7020   20.2877   22.9462 C   0  0  0  0  0  0  0  0  0  0  0  0
   20.4218   20.2724   23.7756 H   0  0  0  0  0  0  0  0  0  0  0  0
   18.7706   19.8467   23.3252 H   0  0  0  0  0  0  0  0  0  0  0  0
   20.2556   19.4433   21.7736 C   0  0  0  0  0  0  0  0  0  0  0  0
   21.1360   19.9491   21.3541 H   0  0  0  0  0  0  0  0  0  0  0  0
   19.5128   19.3947   20.9654 H   0  0  0  0  0  0  0  0  0  0  0  0
   20.6630   18.0089   22.1859 C   0  0  0  0  0  0  0  0  0  0  0  0
   21.1550   17.5274   21.3298 H   0  0  0  0  0  0  0  0  0  0  0  0
   21.4116   18.0549   22.9887 H   0  0  0  0  0  0  0  0  0  0  0  0
   19.4700   17.1353   22.6351 C   0  0  0  0  0  0  0  0  0  0  0  0
   18.6979   17.1325   21.8534 H   0  0  0  0  0  0  0  0  0  0  0  0
   19.0103   17.5581   23.5380 H   0  0  0  0  0  0  0  0  0  0  0  0
   19.9086   15.6862   22.9272 C   0  0  0  0  0  0  0  0  0  0  0  0
   20.3392   15.2177   22.0325 H   0  0  0  0  0  0  0  0  0  0  0  0
   19.0515   15.0799   23.2477 H   0  0  0  0  0  0  0  0  0  0  0  0
   20.6617   15.6575   23.7256 H   0  0  0  0  0  0  0  0  0  0  0  0
  1  2  1  0  0  0  0
  1  3  2  0  0  0  0
  1  4  1  0  0  0  0
  4  5  1  0  0  0  0
  4  6  1  0  0  0  0
  4  7  1  0  0  0  0
  7  8  1  0  0  0  0
  7  9  1  0  0  0  0
  7 10  1  0  0  0  0
 10 11  1  0  0  0  0
 10 12  1  0  0  0  0
 10 13  1  0  0  0  0
 13 14  1  0  0  0  0
 13 15  1  0  0  0  0
 13 16  1  0  0  0  0
 16 17  1  0  0  0  0
 16 18  1  0  0  0  0
 16 19  1  0  0  0  0
 19 20  1  0  0  0  0
 19 21  1  0  0  0  0
 19 22  1  0  0  0  0
M  END
> <VConfSearch Rank>
217

> <Conf_Id>
85

> <Delta U+W>
0.707

> <U+W>
-52.452

> <U>
8.925

> <W>
-61.378

> <W(PB)>
-63.661

> <W(SA)>
2.283

> <Valence>
7.881

> <Coulomb>
0.349

> <VdW>
0.695

> <VdW6>
-8.049

> <VdW12>
8.743

> <Bond>
0.156

> <Angle>
2.660

> <Pdih>
5.064

> <Idih>
0.001

> <Tether>
0.000

$$$$
VeraChem MOL file


 22 21  0  0  0  0  0  0  0  0999 V2000     
   21.0811   19.9387   19.4622 C   0  0  0  0  0  0  0  0  0  0  0  0
   21.3976   21.1118   19.4894 O   0  5  0  0  0  0  0  0  0  0  0  0
   21.7873   19.0626   19.0031 O   0  0  0  0  0  0  0  0  0  0  0  0
   19.7131   19.5455   20.0128 C   0  0  0  0  0  0  0  0  0  0  0  0
   19.2489   18.8713   19.2834 H   0  0  0  0  0  0  0  0  0  0  0  0
   19.0835   20.4422   20.0619 H   0  0  0  0  0  0  0  0  0  0  0  0
   19.7645   18.8509   21.3987 C   0  0  0  0  0  0  0  0  0  0  0  0
   18.7621   18.4704   21.6317 H   0  0  0  0  0  0  0  0  0  0  0  0
   20.4353   17.9822   21.3471 H   0  0  0  0  0  0  0  0  0  0  0  0
   20.2240   19.8047   22.5257 C   0  0  0  0  0  0  0  0  0  0  0  0
   19.5004   20.6250   22.6271 H   0  0  0  0  0  0  0  0  0  0  0  0
   21.1766   20.2702   22.2383 H   0  0  0  0  0  0  0  0  0  0  0  0
   20.4197   19.1174   23.9005 C   0  0  0  0  0  0  0  0  0  0  0  0
   21.2093   18.3567   23.8319 H   0  0  0  0  0  0  0  0  0  0  0  0
   20.7979   19.8773   24.5980 H   0  0  0  0  0  0  0  0  0  0  0  0
   19.1339   18.5033   24.5083 C   0  0  0  0  0  0  0  0  0  0  0  0
   18.2468   19.0420   24.1476 H   0  0  0  0  0  0  0  0  0  0  0  0
   19.1567   18.6478   25.5973 H   0  0  0  0  0  0  0  0  0  0  0  0
   18.9918   16.9901   24.2309 C   0  0  0  0  0  0  0  0  0  0  0  0
   18.9474   16.7739   23.1575 H   0  0  0  0  0  0  0  0  0  0  0  0
   18.0740   16.6003   24.6896 H   0  0  0  0  0  0  0  0  0  0  0  0
   19.8397   16.4350   24.6529 H   0  0  0  0  0  0  0  0  0  0  0  0
  1  2  1  0  0  0  0
  1  3  2  0  0  0  0
  1  4  1  0  0  0  0
  4  5  1  0  0  0  0
  4  6  1  0  0  0  0
  4  7  1  0  0  0  0
  7  8  1  0  0  0  0
  7  9  1  0  0  0  0
  7 10  1  0  0  0  0
 10 11  1  0  0  0  0
 10 12  1  0  0  0  0
 10 13  1  0  0  0  0
 13 14  1  0  0  0  0
 13 15  1  0  0  0  0
 13 16  1  0  0  0  0
 16 17  1  0  0  0  0
 16 18  1  0  0  0  0
 16 19  1  0  0  0  0
 19 20  1  0  0  0  0
 19 21  1  0  0  0  0
 19 22  1  0  0  0  0
M  END
> <VConfSearch Rank>
218

> <Conf_Id>
82

> <Delta U+W>
3.438

> <U+W>
-49.721

> <U>
11.773

> <W>
-61.495

> <W(PB)>
-63.749

> <W(SA)>
2.254

> <Valence>
10.419

> <Coulomb>
0.565

> <VdW>
0.789

> <VdW6>
-8.847

> <VdW12>
9.636

> <Bond>
0.200

> <Angle>
3.187

> <Pdih>
7.032

> <Idih>
0.001

> <Tether>
0.000

$$$$
VeraChem MOL file


 22 21  0  0  0  0  0  0  0  0999 V2000     
   17.7219   21.3993   22.1783 C   0  0  0  0  0  0  0  0  0  0  0  0
   18.3049   22.4415   22.4039 O   0  5  0  0  0  0  0  0  0  0  0  0
   16.9373   21.2530   21.2618 O   0  0  0  0  0  0  0  0  0  0  0  0
   17.9726   20.2181   23.1117 C   0  0  0  0  0  0  0  0  0  0  0  0
   17.1513   19.5002   22.9977 H   0  0  0  0  0  0  0  0  0  0  0  0
   17.9221   20.5973   24.1392 H   0  0  0  0  0  0  0  0  0  0  0  0
   19.3355   19.5125   22.8877 C   0  0  0  0  0  0  0  0  0  0  0  0
   20.1453   20.2517   22.9581 H   0  0  0  0  0  0  0  0  0  0  0  0
   19.4877   18.7896   23.6990 H   0  0  0  0  0  0  0  0  0  0  0  0
   19.4094   18.7786   21.5286 C   0  0  0  0  0  0  0  0  0  0  0  0
   19.1470   19.4801   20.7250 H   0  0  0  0  0  0  0  0  0  0  0  0
   18.6514   17.9840   21.5014 H   0  0  0  0  0  0  0  0  0  0  0  0
   20.7997   18.1756   21.2059 C   0  0  0  0  0  0  0  0  0  0  0  0
   20.7428   17.7353   20.2011 H   0  0  0  0  0  0  0  0  0  0  0  0
   21.5503   18.9750   21.1388 H   0  0  0  0  0  0  0  0  0  0  0  0
   21.2738   17.0751   22.1877 C   0  0  0  0  0  0  0  0  0  0  0  0
   21.8180   16.3082   21.6192 H   0  0  0  0  0  0  0  0  0  0  0  0
   20.4095   16.5663   22.6364 H   0  0  0  0  0  0  0  0  0  0  0  0
   22.2148   17.6078   23.2913 C   0  0  0  0  0  0  0  0  0  0  0  0
   23.1172   18.0531   22.8527 H   0  0  0  0  0  0  0  0  0  0  0  0
   22.5312   16.7912   23.9530 H   0  0  0  0  0  0  0  0  0  0  0  0
   21.7283   18.3704   23.9099 H   0  0  0  0  0  0  0  0  0  0  0  0
  1  2  1  0  0  0  0
  1  3  2  0  0  0  0
  1  4  1  0  0  0  0
  4  5  1  0  0  0  0
  4  6  1  0  0  0  0
  4  7  1  0  0  0  0
  7  8  1  0  0  0  0
  7  9  1  0  0  0  0
  7 10  1  0  0  0  0
 10 11  1  0  0  0  0
 10 12  1  0  0  0  0
 10 13  1  0  0  0  0
 13 14  1  0  0  0  0
 13 15  1  0  0  0  0
 13 16  1  0  0  0  0
 16 17  1  0  0  0  0
 16 18  1  0  0  0  0
 16 19  1  0  0  0  0
 19 20  1  0  0  0  0
 19 21  1  0  0  0  0
 19 22  1  0  0  0  0
M  END
> <VConfSearch Rank>
219

> <Conf_Id>
94

> <Delta U+W>
3.471

> <U+W>
-49.688

> <U>
11.773

> <W>
-61.461

> <W(PB)>
-63.710

> <W(SA)>
2.248

> <Valence>
10.419

> <Coulomb>
0.566

> <VdW>
0.789

> <VdW6>
-8.847

> <VdW12>
9.636

> <Bond>
0.200

> <Angle>
3.187

> <Pdih>
7.032

> <Idih>
0.001

> <Tether>
0.000

$$$$
VeraChem MOL file


 22 21  0  0  0  0  0  0  0  0999 V2000     
   20.1350   16.7492   20.0212 C   0  0  0  0  0  0  0  0  0  0  0  0
   19.7385   15.6026   19.9528 O   0  5  0  0  0  0  0  0  0  0  0  0
   21.1436   17.1460   19.4718 O   0  0  0  0  0  0  0  0  0  0  0  0
   19.3331   17.7393   20.8582 C   0  0  0  0  0  0  0  0  0  0  0  0
   18.2748   17.4596   20.7964 H   0  0  0  0  0  0  0  0  0  0  0  0
   19.4365   18.7276   20.3960 H   0  0  0  0  0  0  0  0  0  0  0  0
   19.7898   17.7811   22.3395 C   0  0  0  0  0  0  0  0  0  0  0  0
   19.7526   16.7624   22.7492 H   0  0  0  0  0  0  0  0  0  0  0  0
   20.8421   18.0909   22.3911 H   0  0  0  0  0  0  0  0  0  0  0  0
   18.9189   18.7033   23.2291 C   0  0  0  0  0  0  0  0  0  0  0  0
   19.2741   18.6352   24.2658 H   0  0  0  0  0  0  0  0  0  0  0  0
   17.8910   18.3162   23.2413 H   0  0  0  0  0  0  0  0  0  0  0  0
   18.8812   20.1932   22.7978 C   0  0  0  0  0  0  0  0  0  0  0  0
   18.3755   20.2781   21.8271 H   0  0  0  0  0  0  0  0  0  0  0  0
   18.2531   20.7473   23.5085 H   0  0  0  0  0  0  0  0  0  0  0  0
   20.2621   20.8880   22.7065 C   0  0  0  0  0  0  0  0  0  0  0  0
   20.1120   21.9227   22.3692 H   0  0  0  0  0  0  0  0  0  0  0  0
   20.8788   20.4042   21.9373 H   0  0  0  0  0  0  0  0  0  0  0  0
   21.0244   20.9087   24.0490 C   0  0  0  0  0  0  0  0  0  0  0  0
   20.4187   21.3741   24.8374 H   0  0  0  0  0  0  0  0  0  0  0  0
   21.9552   21.4824   23.9536 H   0  0  0  0  0  0  0  0  0  0  0  0
   21.2900   19.8943   24.3720 H   0  0  0  0  0  0  0  0  0  0  0  0
  1  2  1  0  0  0  0
  1  3  2  0  0  0  0
  1  4  1  0  0  0  0
  4  5  1  0  0  0  0
  4  6  1  0  0  0  0
  4  7  1  0  0  0  0
  7  8  1  0  0  0  0
  7  9  1  0  0  0  0
  7 10  1  0  0  0  0
 10 11  1  0  0  0  0
 10 12  1  0  0  0  0
 10 13  1  0  0  0  0
 13 14  1  0  0  0  0
 13 15  1  0  0  0  0
 13 16  1  0  0  0  0
 16 17  1  0  0  0  0
 16 18  1  0  0  0  0
 16 19  1  0  0  0  0
 19 20  1  0  0  0  0
 19 21  1  0  0  0  0
 19 22  1  0  0  0  0
M  END
> <VConfSearch Rank>
220

> <Conf_Id>
56

> <Delta U+W>
0.853

> <U+W>
-52.307

> <U>
8.874

> <W>
-61.181

> <W(PB)>
-63.413

> <W(SA)>
2.232

> <Valence>
8.479

> <Coulomb>
-0.357

> <VdW>
0.753

> <VdW6>
-9.081

> <VdW12>
9.833

> <Bond>
0.221

> <Angle>
3.208

> <Pdih>
5.050

> <Idih>
0.000

> <Tether>
0.000

$$$$
VeraChem MOL file


 22 21  0  0  0  0  0  0  0  0999 V2000     
   19.5599   21.8782   19.3683 C   0  0  0  0  0  0  0  0  0  0  0  0
   18.3646   22.0214   19.5385 O   0  5  0  0  0  0  0  0  0  0  0  0
   20.1987   22.5304   18.5666 O   0  0  0  0  0  0  0  0  0  0  0  0
   20.3236   20.8357   20.1865 C   0  0  0  0  0  0  0  0  0  0  0  0
   21.1259   21.3609   20.7180 H   0  0  0  0  0  0  0  0  0  0  0  0
   20.8032   20.1507   19.4775 H   0  0  0  0  0  0  0  0  0  0  0  0
   19.4660   20.0285   21.1971 C   0  0  0  0  0  0  0  0  0  0  0  0
   18.9835   20.7211   21.9006 H   0  0  0  0  0  0  0  0  0  0  0  0
   18.6606   19.5097   20.6589 H   0  0  0  0  0  0  0  0  0  0  0  0
   20.3141   19.0015   21.9784 C   0  0  0  0  0  0  0  0  0  0  0  0
   21.1186   19.5225   22.5156 H   0  0  0  0  0  0  0  0  0  0  0  0
   20.7956   18.3103   21.2731 H   0  0  0  0  0  0  0  0  0  0  0  0
   19.4591   18.1996   22.9830 C   0  0  0  0  0  0  0  0  0  0  0  0
   18.9773   18.8904   23.6885 H   0  0  0  0  0  0  0  0  0  0  0  0
   18.6545   17.6784   22.4462 H   0  0  0  0  0  0  0  0  0  0  0  0
   20.3060   17.1732   23.7642 C   0  0  0  0  0  0  0  0  0  0  0  0
   21.1108   17.6911   24.3041 H   0  0  0  0  0  0  0  0  0  0  0  0
   20.7880   16.4791   23.0617 H   0  0  0  0  0  0  0  0  0  0  0  0
   19.4485   16.3744   24.7662 C   0  0  0  0  0  0  0  0  0  0  0  0
   18.9790   17.0418   25.5008 H   0  0  0  0  0  0  0  0  0  0  0  0
   20.0662   15.6499   25.3126 H   0  0  0  0  0  0  0  0  0  0  0  0
   18.6539   15.8207   24.2491 H   0  0  0  0  0  0  0  0  0  0  0  0
  1  2  1  0  0  0  0
  1  3  2  0  0  0  0
  1  4  1  0  0  0  0
  4  5  1  0  0  0  0
  4  6  1  0  0  0  0
  4  7  1  0  0  0  0
  7  8  1  0  0  0  0
  7  9  1  0  0  0  0
  7 10  1  0  0  0  0
 10 11  1  0  0  0  0
 10 12  1  0  0  0  0
 10 13  1  0  0  0  0
 13 14  1  0  0  0  0
 13 15  1  0  0  0  0
 13 16  1  0  0  0  0
 16 17  1  0  0  0  0
 16 18  1  0  0  0  0
 16 19  1  0  0  0  0
 19 20  1  0  0  0  0
 19 21  1  0  0  0  0
 19 22  1  0  0  0  0
M  END
> <VConfSearch Rank>
221

> <Conf_Id>
0

> <Delta U+W>
0.000

> <U+W>
-53.159

> <U>
6.763

> <W>
-59.922

> <W(PB)>
-62.256

> <W(SA)>
2.334

> <Valence>
7.600

> <Coulomb>
-2.139

> <VdW>
1.302

> <VdW6>
-6.786

> <VdW12>
8.088

> <Bond>
0.134

> <Angle>
2.720

> <Pdih>
4.746

> <Idih>
0.000

> <Tether>
0.000

$$$$
VeraChem MOL file


 22 21  0  0  0  0  0  0  0  0999 V2000     
   16.6280   18.9641   19.6909 C   0  0  0  0  0  0  0  0  0  0  0  0
   16.5202   17.9550   19.0227 O   0  5  0  0  0  0  0  0  0  0  0  0
   16.2890   20.0656   19.3060 O   0  0  0  0  0  0  0  0  0  0  0  0
   17.2432   18.8450   21.0807 C   0  0  0  0  0  0  0  0  0  0  0  0
   16.9724   17.8644   21.4903 H   0  0  0  0  0  0  0  0  0  0  0  0
   16.7816   19.6038   21.7239 H   0  0  0  0  0  0  0  0  0  0  0  0
   18.7825   19.0148   21.0738 C   0  0  0  0  0  0  0  0  0  0  0  0
   19.2283   18.2563   20.4154 H   0  0  0  0  0  0  0  0  0  0  0  0
   19.0374   19.9956   20.6490 H   0  0  0  0  0  0  0  0  0  0  0  0
   19.3809   18.8900   22.4917 C   0  0  0  0  0  0  0  0  0  0  0  0
   19.1231   17.9090   22.9139 H   0  0  0  0  0  0  0  0  0  0  0  0
   18.9322   19.6487   23.1476 H   0  0  0  0  0  0  0  0  0  0  0  0
   20.9153   19.0598   22.4817 C   0  0  0  0  0  0  0  0  0  0  0  0
   21.3643   18.3012   21.8259 H   0  0  0  0  0  0  0  0  0  0  0  0
   21.1734   20.0407   22.0595 H   0  0  0  0  0  0  0  0  0  0  0  0
   21.5141   18.9352   23.8984 C   0  0  0  0  0  0  0  0  0  0  0  0
   21.2596   17.9543   24.3233 H   0  0  0  0  0  0  0  0  0  0  0  0
   21.0687   19.6938   24.5569 H   0  0  0  0  0  0  0  0  0  0  0  0
   23.0465   19.1053   23.8842 C   0  0  0  0  0  0  0  0  0  0  0  0
   23.3286   20.0915   23.4928 H   0  0  0  0  0  0  0  0  0  0  0  0
   23.5209   18.3390   23.2572 H   0  0  0  0  0  0  0  0  0  0  0  0
   23.4553   19.0138   24.8989 H   0  0  0  0  0  0  0  0  0  0  0  0
  1  2  1  0  0  0  0
  1  3  2  0  0  0  0
  1  4  1  0  0  0  0
  4  5  1  0  0  0  0
  4  6  1  0  0  0  0
  4  7  1  0  0  0  0
  7  8  1  0  0  0  0
  7  9  1  0  0  0  0
  7 10  1  0  0  0  0
 10 11  1  0  0  0  0
 10 12  1  0  0  0  0
 10 13  1  0  0  0  0
 13 14  1  0  0  0  0
 13 15  1  0  0  0  0
 13 16  1  0  0  0  0
 16 17  1  0  0  0  0
 16 18  1  0  0  0  0
 16 19  1  0  0  0  0
 19 20  1  0  0  0  0
 19 21  1  0  0  0  0
 19 22  1  0  0  0  0
M  END
> <VConfSearch Rank>
222

> <Conf_Id>
10

> <Delta U+W>
-1.291

> <U+W>
-54.451

> <U>
5.779

> <W>
-60.230

> <W(PB)>
-62.557

> <W(SA)>
2.328

> <Valence>
7.101

> <Coulomb>
-2.079

> <VdW>
0.757

> <VdW6>
-6.496

> <VdW12>
7.253

> <Bond>
0.100

> <Angle>
2.262

> <Pdih>
4.738

> <Idih>
0.001

> <Tether>
0.000

$$$$
VeraChem MOL file


 22 21  0  0  0  0  0  0  0  0999 V2000     
   20.1600   16.2478   19.4172 C   0  0  0  0  0  0  0  0  0  0  0  0
   20.9981   15.4025   19.6613 O   0  5  0  0  0  0  0  0  0  0  0  0
   19.1891   16.0495   18.7140 O   0  0  0  0  0  0  0  0  0  0  0  0
   20.3246   17.6273   20.0449 C   0  0  0  0  0  0  0  0  0  0  0  0
   19.9075   18.3687   19.3528 H   0  0  0  0  0  0  0  0  0  0  0  0
   21.3977   17.8350   20.1345 H   0  0  0  0  0  0  0  0  0  0  0  0
   19.6402   17.7442   21.4292 C   0  0  0  0  0  0  0  0  0  0  0  0
   18.5695   17.5202   21.3243 H   0  0  0  0  0  0  0  0  0  0  0  0
   20.0597   16.9874   22.1066 H   0  0  0  0  0  0  0  0  0  0  0  0
   19.8213   19.1493   22.0432 C   0  0  0  0  0  0  0  0  0  0  0  0
   19.3992   19.9034   21.3650 H   0  0  0  0  0  0  0  0  0  0  0  0
   20.8935   19.3655   22.1369 H   0  0  0  0  0  0  0  0  0  0  0  0
   19.1396   19.2597   23.4265 C   0  0  0  0  0  0  0  0  0  0  0  0
   18.0838   18.9720   23.3286 H   0  0  0  0  0  0  0  0  0  0  0  0
   19.5946   18.5412   24.1219 H   0  0  0  0  0  0  0  0  0  0  0  0
   19.2068   20.6803   24.0335 C   0  0  0  0  0  0  0  0  0  0  0  0
   18.6026   20.7005   24.9509 H   0  0  0  0  0  0  0  0  0  0  0  0
   18.7468   21.4010   23.3433 H   0  0  0  0  0  0  0  0  0  0  0  0
   20.6434   21.1320   24.3746 C   0  0  0  0  0  0  0  0  0  0  0  0
   20.6293   22.1051   24.8823 H   0  0  0  0  0  0  0  0  0  0  0  0
   21.2555   21.2384   23.4703 H   0  0  0  0  0  0  0  0  0  0  0  0
   21.1345   20.4105   25.0405 H   0  0  0  0  0  0  0  0  0  0  0  0
  1  2  1  0  0  0  0
  1  3  2  0  0  0  0
  1  4  1  0  0  0  0
  4  5  1  0  0  0  0
  4  6  1  0  0  0  0
  4  7  1  0  0  0  0
  7  8  1  0  0  0  0
  7  9  1  0  0  0  0
  7 10  1  0  0  0  0
 10 11  1  0  0  0  0
 10 12  1  0  0  0  0
 10 13  1  0  0  0  0
 13 14  1  0  0  0  0
 13 15  1  0  0  0  0
 13 16  1  0  0  0  0
 16 17  1  0  0  0  0
 16 18  1  0  0  0  0
 16 19  1  0  0  0  0
 19 20  1  0  0  0  0
 19 21  1  0  0  0  0
 19 22  1  0  0  0  0
M  END
> <VConfSearch Rank>
223

> <Conf_Id>
37

> <Delta U+W>
-0.345

> <U+W>
-53.504

> <U>
6.751

> <W>
-60.255

> <W(PB)>
-62.592

> <W(SA)>
2.336

> <Valence>
7.602

> <Coulomb>
-1.744

> <VdW>
0.894

> <VdW6>
-7.110

> <VdW12>
8.004

> <Bond>
0.131

> <Angle>
2.489

> <Pdih>
4.982

> <Idih>
0.001

> <Tether>
0.000

$$$$
VeraChem MOL file


 22 21  0  0  0  0  0  0  0  0999 V2000     
   22.4405   16.1760   22.6192 C   0  0  0  0  0  0  0  0  0  0  0  0
   22.2642   15.2540   21.8477 O   0  5  0  0  0  0  0  0  0  0  0  0
   22.9901   16.0567   23.6963 O   0  0  0  0  0  0  0  0  0  0  0  0
   21.9244   17.5548   22.2232 C   0  0  0  0  0  0  0  0  0  0  0  0
   21.9962   17.6452   21.1326 H   0  0  0  0  0  0  0  0  0  0  0  0
   22.5951   18.3069   22.6557 H   0  0  0  0  0  0  0  0  0  0  0  0
   20.4683   17.8080   22.6858 C   0  0  0  0  0  0  0  0  0  0  0  0
   19.8116   17.0398   22.2544 H   0  0  0  0  0  0  0  0  0  0  0  0
   20.4110   17.7004   23.7779 H   0  0  0  0  0  0  0  0  0  0  0  0
   19.9696   19.2099   22.2731 C   0  0  0  0  0  0  0  0  0  0  0  0
   20.0379   19.3093   21.1820 H   0  0  0  0  0  0  0  0  0  0  0  0
   20.6266   19.9758   22.7075 H   0  0  0  0  0  0  0  0  0  0  0  0
   18.5145   19.4563   22.7338 C   0  0  0  0  0  0  0  0  0  0  0  0
   17.8471   18.7229   22.2607 H   0  0  0  0  0  0  0  0  0  0  0  0
   18.4484   19.2839   23.8168 H   0  0  0  0  0  0  0  0  0  0  0  0
   18.0079   20.8860   22.4326 C   0  0  0  0  0  0  0  0  0  0  0  0
   18.6695   21.6223   22.9097 H   0  0  0  0  0  0  0  0  0  0  0  0
   17.0186   21.0136   22.8931 H   0  0  0  0  0  0  0  0  0  0  0  0
   17.8960   21.1896   20.9228 C   0  0  0  0  0  0  0  0  0  0  0  0
   17.2629   20.4478   20.4187 H   0  0  0  0  0  0  0  0  0  0  0  0
   18.8810   21.1874   20.4395 H   0  0  0  0  0  0  0  0  0  0  0  0
   17.4498   22.1796   20.7625 H   0  0  0  0  0  0  0  0  0  0  0  0
  1  2  1  0  0  0  0
  1  3  2  0  0  0  0
  1  4  1  0  0  0  0
  4  5  1  0  0  0  0
  4  6  1  0  0  0  0
  4  7  1  0  0  0  0
  7  8  1  0  0  0  0
  7  9  1  0  0  0  0
  7 10  1  0  0  0  0
 10 11  1  0  0  0  0
 10 12  1  0  0  0  0
 10 13  1  0  0  0  0
 13 14  1  0  0  0  0
 13 15  1  0  0  0  0
 13 16  1  0  0  0  0
 16 17  1  0  0  0  0
 16 18  1  0  0  0  0
 16 19  1  0  0  0  0
 19 20  1  0  0  0  0
 19 21  1  0  0  0  0
 19 22  1  0  0  0  0
M  END
> <VConfSearch Rank>
224

> <Conf_Id>
38

> <Delta U+W>
-0.439

> <U+W>
-53.598

> <U>
6.751

> <W>
-60.350

> <W(PB)>
-62.659

> <W(SA)>
2.309

> <Valence>
7.602

> <Coulomb>
-1.744

> <VdW>
0.893

> <VdW6>
-7.110

> <VdW12>
8.004

> <Bond>
0.131

> <Angle>
2.489

> <Pdih>
4.981

> <Idih>
0.001

> <Tether>
0.000

$$$$
VeraChem MOL file


 22 21  0  0  0  0  0  0  0  0999 V2000     
   17.4468   21.6068   20.9554 C   0  0  0  0  0  0  0  0  0  0  0  0
   17.7877   22.6812   20.5016 O   0  5  0  0  0  0  0  0  0  0  0  0
   16.3325   21.3807   21.3842 O   0  0  0  0  0  0  0  0  0  0  0  0
   18.4808   20.4878   21.0107 C   0  0  0  0  0  0  0  0  0  0  0  0
   19.1614   20.6115   20.1598 H   0  0  0  0  0  0  0  0  0  0  0  0
   17.9515   19.5390   20.8692 H   0  0  0  0  0  0  0  0  0  0  0  0
   19.2814   20.4765   22.3390 C   0  0  0  0  0  0  0  0  0  0  0  0
   19.7168   21.4733   22.4948 H   0  0  0  0  0  0  0  0  0  0  0  0
   18.5959   20.3031   23.1800 H   0  0  0  0  0  0  0  0  0  0  0  0
   20.4208   19.4297   22.3684 C   0  0  0  0  0  0  0  0  0  0  0  0
   21.0107   19.5958   23.2788 H   0  0  0  0  0  0  0  0  0  0  0  0
   21.0994   19.6006   21.5217 H   0  0  0  0  0  0  0  0  0  0  0  0
   19.9132   17.9669   22.3446 C   0  0  0  0  0  0  0  0  0  0  0  0
   19.2332   17.7967   23.1903 H   0  0  0  0  0  0  0  0  0  0  0  0
   19.3256   17.7985   21.4332 H   0  0  0  0  0  0  0  0  0  0  0  0
   21.0522   16.9211   22.3784 C   0  0  0  0  0  0  0  0  0  0  0  0
   21.7412   17.0952   21.5404 H   0  0  0  0  0  0  0  0  0  0  0  0
   20.6183   15.9241   22.2208 H   0  0  0  0  0  0  0  0  0  0  0  0
   21.8397   16.9132   23.7067 C   0  0  0  0  0  0  0  0  0  0  0  0
   22.3932   17.8493   23.8513 H   0  0  0  0  0  0  0  0  0  0  0  0
   22.5688   16.0927   23.7152 H   0  0  0  0  0  0  0  0  0  0  0  0
   21.1659   16.7751   24.5623 H   0  0  0  0  0  0  0  0  0  0  0  0
  1  2  1  0  0  0  0
  1  3  2  0  0  0  0
  1  4  1  0  0  0  0
  4  5  1  0  0  0  0
  4  6  1  0  0  0  0
  4  7  1  0  0  0  0
  7  8  1  0  0  0  0
  7  9  1  0  0  0  0
  7 10  1  0  0  0  0
 10 11  1  0  0  0  0
 10 12  1  0  0  0  0
 10 13  1  0  0  0  0
 13 14  1  0  0  0  0
 13 15  1  0  0  0  0
 13 16  1  0  0  0  0
 16 17  1  0  0  0  0
 16 18  1  0  0  0  0
 16 19  1  0  0  0  0
 19 20  1  0  0  0  0
 19 21  1  0  0  0  0
 19 22  1  0  0  0  0
M  END
> <VConfSearch Rank>
225

> <Conf_Id>
60

> <Delta U+W>
0.386

> <U+W>
-52.773

> <U>
7.689

> <W>
-60.463

> <W(PB)>
-62.772

> <W(SA)>
2.309

> <Valence>
8.197

> <Coulomb>
-1.561

> <VdW>
1.053

> <VdW6>
-7.737

> <VdW12>
8.790

> <Bond>
0.181

> <Angle>
2.780

> <Pdih>
5.235

> <Idih>
0.001

> <Tether>
0.000

$$$$
VeraChem MOL file


 22 21  0  0  0  0  0  0  0  0999 V2000     
   18.4011   21.6517   20.0541 C   0  0  0  0  0  0  0  0  0  0  0  0
   17.6075   22.3162   20.6905 O   0  5  0  0  0  0  0  0  0  0  0  0
   18.4430   21.6346   18.8398 O   0  0  0  0  0  0  0  0  0  0  0  0
   19.3837   20.7735   20.8208 C   0  0  0  0  0  0  0  0  0  0  0  0
   19.6278   21.2872   21.7572 H   0  0  0  0  0  0  0  0  0  0  0  0
   20.3083   20.7065   20.2351 H   0  0  0  0  0  0  0  0  0  0  0  0
   18.8251   19.3544   21.1031 C   0  0  0  0  0  0  0  0  0  0  0  0
   17.9269   19.4310   21.7313 H   0  0  0  0  0  0  0  0  0  0  0  0
   18.5009   18.9093   20.1522 H   0  0  0  0  0  0  0  0  0  0  0  0
   19.8498   18.4048   21.7689 C   0  0  0  0  0  0  0  0  0  0  0  0
   20.7496   18.3369   21.1425 H   0  0  0  0  0  0  0  0  0  0  0  0
   19.4124   17.3987   21.7958 H   0  0  0  0  0  0  0  0  0  0  0  0
   20.2431   18.8329   23.2042 C   0  0  0  0  0  0  0  0  0  0  0  0
   20.6835   19.8376   23.1784 H   0  0  0  0  0  0  0  0  0  0  0  0
   19.3429   18.9026   23.8300 H   0  0  0  0  0  0  0  0  0  0  0  0
   21.2637   17.8811   23.8709 C   0  0  0  0  0  0  0  0  0  0  0  0
   21.5903   18.3261   24.8209 H   0  0  0  0  0  0  0  0  0  0  0  0
   22.1611   17.7996   23.2422 H   0  0  0  0  0  0  0  0  0  0  0  0
   20.6966   16.4728   24.1537 C   0  0  0  0  0  0  0  0  0  0  0  0
   19.7785   16.5319   24.7526 H   0  0  0  0  0  0  0  0  0  0  0  0
   21.4256   15.8711   24.7117 H   0  0  0  0  0  0  0  0  0  0  0  0
   20.4680   15.9375   23.2239 H   0  0  0  0  0  0  0  0  0  0  0  0
  1  2  1  0  0  0  0
  1  3  2  0  0  0  0
  1  4  1  0  0  0  0
  4  5  1  0  0  0  0
  4  6  1  0  0  0  0
  4  7  1  0  0  0  0
  7  8  1  0  0  0  0
  7  9  1  0  0  0  0
  7 10  1  0  0  0  0
 10 11  1  0  0  0  0
 10 12  1  0  0  0  0
 10 13  1  0  0  0  0
 13 14  1  0  0  0  0
 13 15  1  0  0  0  0
 13 16  1  0  0  0  0
 16 17  1  0  0  0  0
 16 18  1  0  0  0  0
 16 19  1  0  0  0  0
 19 20  1  0  0  0  0
 19 21  1  0  0  0  0
 19 22  1  0  0  0  0
M  END
> <VConfSearch Rank>
226

> <Conf_Id>
28

> <Delta U+W>
0.351

> <U+W>
-52.808

> <U>
7.689

> <W>
-60.498

> <W(PB)>
-62.768

> <W(SA)>
2.270

> <Valence>
8.197

> <Coulomb>
-1.561

> <VdW>
1.053

> <VdW6>
-7.737

> <VdW12>
8.791

> <Bond>
0.181

> <Angle>
2.780

> <Pdih>
5.235

> <Idih>
0.001

> <Tether>
0.000

$$$$
VeraChem MOL file


 22 21  0  0  0  0  0  0  0  0999 V2000     
   23.4821   18.7263   21.1754 C   0  0  0  0  0  0  0  0  0  0  0  0
   24.0861   17.7019   21.4251 O   0  5  0  0  0  0  0  0  0  0  0  0
   23.5702   19.3188   20.1182 O   0  0  0  0  0  0  0  0  0  0  0  0
   22.5468   19.2884   22.2401 C   0  0  0  0  0  0  0  0  0  0  0  0
   22.5413   20.3810   22.1464 H   0  0  0  0  0  0  0  0  0  0  0  0
   22.9682   19.0493   23.2240 H   0  0  0  0  0  0  0  0  0  0  0  0
   21.1047   18.7354   22.1266 C   0  0  0  0  0  0  0  0  0  0  0  0
   20.7130   18.9693   21.1279 H   0  0  0  0  0  0  0  0  0  0  0  0
   21.1283   17.6404   22.2134 H   0  0  0  0  0  0  0  0  0  0  0  0
   20.1774   19.3252   23.2144 C   0  0  0  0  0  0  0  0  0  0  0  0
   20.1121   20.4153   23.0948 H   0  0  0  0  0  0  0  0  0  0  0  0
   20.6265   19.1471   24.2011 H   0  0  0  0  0  0  0  0  0  0  0  0
   18.7547   18.7174   23.2072 C   0  0  0  0  0  0  0  0  0  0  0  0
   18.8194   17.6277   23.3308 H   0  0  0  0  0  0  0  0  0  0  0  0
   18.2096   19.0972   24.0821 H   0  0  0  0  0  0  0  0  0  0  0  0
   17.9486   19.0500   21.9313 C   0  0  0  0  0  0  0  0  0  0  0  0
   18.4359   18.6114   21.0506 H   0  0  0  0  0  0  0  0  0  0  0  0
   17.9286   20.1378   21.7785 H   0  0  0  0  0  0  0  0  0  0  0  0
   16.5038   18.5189   22.0210 C   0  0  0  0  0  0  0  0  0  0  0  0
   15.9720   18.9670   22.8705 H   0  0  0  0  0  0  0  0  0  0  0  0
   16.4937   17.4282   22.1467 H   0  0  0  0  0  0  0  0  0  0  0  0
   15.9457   18.7599   21.1069 H   0  0  0  0  0  0  0  0  0  0  0  0
  1  2  1  0  0  0  0
  1  3  2  0  0  0  0
  1  4  1  0  0  0  0
  4  5  1  0  0  0  0
  4  6  1  0  0  0  0
  4  7  1  0  0  0  0
  7  8  1  0  0  0  0
  7  9  1  0  0  0  0
  7 10  1  0  0  0  0
 10 11  1  0  0  0  0
 10 12  1  0  0  0  0
 10 13  1  0  0  0  0
 13 14  1  0  0  0  0
 13 15  1  0  0  0  0
 13 16  1  0  0  0  0
 16 17  1  0  0  0  0
 16 18  1  0  0  0  0
 16 19  1  0  0  0  0
 19 20  1  0  0  0  0
 19 21  1  0  0  0  0
 19 22  1  0  0  0  0
M  END
> <VConfSearch Rank>
227

> <Conf_Id>
50

> <Delta U+W>
-0.486

> <U+W>
-53.646

> <U>
7.026

> <W>
-60.672

> <W(PB)>
-62.964

> <W(SA)>
2.292

> <Valence>
7.637

> <Coulomb>
-1.488

> <VdW>
0.877

> <VdW6>
-7.165

> <VdW12>
8.043

> <Bond>
0.134

> <Angle>
2.513

> <Pdih>
4.990

> <Idih>
0.001

> <Tether>
0.000

$$$$
VeraChem MOL file


 22 21  0  0  0  0  0  0  0  0999 V2000     
   23.3281   18.9725   23.3053 C   0  0  0  0  0  0  0  0  0  0  0  0
   24.0186   18.0770   22.8606 O   0  5  0  0  0  0  0  0  0  0  0  0
   23.3783   19.3517   24.4586 O   0  0  0  0  0  0  0  0  0  0  0  0
   22.3291   19.6437   22.3695 C   0  0  0  0  0  0  0  0  0  0  0  0
   22.7550   19.6421   21.3590 H   0  0  0  0  0  0  0  0  0  0  0  0
   22.2256   20.6915   22.6763 H   0  0  0  0  0  0  0  0  0  0  0  0
   20.9452   18.9487   22.3683 C   0  0  0  0  0  0  0  0  0  0  0  0
   21.0670   17.8988   22.0680 H   0  0  0  0  0  0  0  0  0  0  0  0
   20.5493   18.9451   23.3924 H   0  0  0  0  0  0  0  0  0  0  0  0
   19.9513   19.6520   21.4151 C   0  0  0  0  0  0  0  0  0  0  0  0
   20.3993   19.7128   20.4139 H   0  0  0  0  0  0  0  0  0  0  0  0
   19.7890   20.6869   21.7464 H   0  0  0  0  0  0  0  0  0  0  0  0
   18.5900   18.9261   21.2990 C   0  0  0  0  0  0  0  0  0  0  0  0
   17.9991   19.4180   20.5143 H   0  0  0  0  0  0  0  0  0  0  0  0
   18.7516   17.8923   20.9640 H   0  0  0  0  0  0  0  0  0  0  0  0
   17.7769   18.9266   22.6132 C   0  0  0  0  0  0  0  0  0  0  0  0
   17.6604   19.9570   22.9766 H   0  0  0  0  0  0  0  0  0  0  0  0
   18.3155   18.3709   23.3919 H   0  0  0  0  0  0  0  0  0  0  0  0
   16.3850   18.2926   22.4171 C   0  0  0  0  0  0  0  0  0  0  0  0
   16.4722   17.2515   22.0796 H   0  0  0  0  0  0  0  0  0  0  0  0
   15.8017   18.8475   21.6706 H   0  0  0  0  0  0  0  0  0  0  0  0
   15.8216   18.2975   23.3592 H   0  0  0  0  0  0  0  0  0  0  0  0
  1  2  1  0  0  0  0
  1  3  2  0  0  0  0
  1  4  1  0  0  0  0
  4  5  1  0  0  0  0
  4  6  1  0  0  0  0
  4  7  1  0  0  0  0
  7  8  1  0  0  0  0
  7  9  1  0  0  0  0
  7 10  1  0  0  0  0
 10 11  1  0  0  0  0
 10 12  1  0  0  0  0
 10 13  1  0  0  0  0
 13 14  1  0  0  0  0
 13 15  1  0  0  0  0
 13 16  1  0  0  0  0
 16 17  1  0  0  0  0
 16 18  1  0  0  0  0
 16 19  1  0  0  0  0
 19 20  1  0  0  0  0
 19 21  1  0  0  0  0
 19 22  1  0  0  0  0
M  END
> <VConfSearch Rank>
228

> <Conf_Id>
51

> <Delta U+W>
-0.517

> <U+W>
-53.677

> <U>
7.026

> <W>
-60.703

> <W(PB)>
-63.007

> <W(SA)>
2.304

> <Valence>
7.638

> <Coulomb>
-1.488

> <VdW>
0.877

> <VdW6>
-7.165

> <VdW12>
8.042

> <Bond>
0.134

> <Angle>
2.513

> <Pdih>
4.990

> <Idih>
0.001

> <Tether>
0.000

$$$$
VeraChem MOL file


 22 21  0  0  0  0  0  0  0  0999 V2000     
   21.0512   22.0919   21.6524 C   0  0  0  0  0  0  0  0  0  0  0  0
   21.3853   22.7111   22.6433 O   0  5  0  0  0  0  0  0  0  0  0  0
   21.8055   21.8324   20.7357 O   0  0  0  0  0  0  0  0  0  0  0  0
   19.5996   21.6325   21.5473 C   0  0  0  0  0  0  0  0  0  0  0  0
   19.3774   21.4117   20.4962 H   0  0  0  0  0  0  0  0  0  0  0  0
   18.9659   22.4798   21.8344 H   0  0  0  0  0  0  0  0  0  0  0  0
   19.2599   20.4073   22.4352 C   0  0  0  0  0  0  0  0  0  0  0  0
   19.5139   20.6335   23.4802 H   0  0  0  0  0  0  0  0  0  0  0  0
   18.1756   20.2341   22.4038 H   0  0  0  0  0  0  0  0  0  0  0  0
   19.9939   19.1246   21.9840 C   0  0  0  0  0  0  0  0  0  0  0  0
   21.0801   19.2845   22.0291 H   0  0  0  0  0  0  0  0  0  0  0  0
   19.7470   18.9103   20.9351 H   0  0  0  0  0  0  0  0  0  0  0  0
   19.6171   17.9116   22.8615 C   0  0  0  0  0  0  0  0  0  0  0  0
   19.8643   18.1267   23.9102 H   0  0  0  0  0  0  0  0  0  0  0  0
   18.5317   17.7479   22.8158 H   0  0  0  0  0  0  0  0  0  0  0  0
   20.3503   16.6304   22.4120 C   0  0  0  0  0  0  0  0  0  0  0  0
   21.4366   16.7898   22.4581 H   0  0  0  0  0  0  0  0  0  0  0  0
   20.1041   16.4111   21.3638 H   0  0  0  0  0  0  0  0  0  0  0  0
   19.9721   15.4214   23.2910 C   0  0  0  0  0  0  0  0  0  0  0  0
   20.2368   15.6013   24.3412 H   0  0  0  0  0  0  0  0  0  0  0  0
   20.5022   14.5198   22.9575 H   0  0  0  0  0  0  0  0  0  0  0  0
   18.8942   15.2197   23.2387 H   0  0  0  0  0  0  0  0  0  0  0  0
  1  2  1  0  0  0  0
  1  3  2  0  0  0  0
  1  4  1  0  0  0  0
  4  5  1  0  0  0  0
  4  6  1  0  0  0  0
  4  7  1  0  0  0  0
  7  8  1  0  0  0  0
  7  9  1  0  0  0  0
  7 10  1  0  0  0  0
 10 11  1  0  0  0  0
 10 12  1  0  0  0  0
 10 13  1  0  0  0  0
 13 14  1  0  0  0  0
 13 15  1  0  0  0  0
 13 16  1  0  0  0  0
 16 17  1  0  0  0  0
 16 18  1  0  0  0  0
 16 19  1  0  0  0  0
 19 20  1  0  0  0  0
 19 21  1  0  0  0  0
 19 22  1  0  0  0  0
M  END
> <VConfSearch Rank>
229

> <Conf_Id>
43

> <Delta U+W>
-0.129

> <U+W>
-53.289

> <U>
7.937

> <W>
-61.225

> <W(PB)>
-63.523

> <W(SA)>
2.297

> <Valence>
7.358

> <Coulomb>
-0.022

> <VdW>
0.601

> <VdW6>
-7.363

> <VdW12>
7.964

> <Bond>
0.121

> <Angle>
2.425

> <Pdih>
4.811

> <Idih>
0.000

> <Tether>
0.000

$$$$
VeraChem MOL file


 22 21  0  0  0  0  0  0  0  0999 V2000     
   22.4215   21.0743   23.1370 C   0  0  0  0  0  0  0  0  0  0  0  0
   22.2786   21.6874   24.1765 O   0  5  0  0  0  0  0  0  0  0  0  0
   22.5697   21.6092   22.0559 O   0  0  0  0  0  0  0  0  0  0  0  0
   22.4336   19.5494   23.1975 C   0  0  0  0  0  0  0  0  0  0  0  0
   23.0826   19.2595   24.0323 H   0  0  0  0  0  0  0  0  0  0  0  0
   22.9026   19.1663   22.2831 H   0  0  0  0  0  0  0  0  0  0  0  0
   21.0315   18.9145   23.3868 C   0  0  0  0  0  0  0  0  0  0  0  0
   21.1488   17.8358   23.5575 H   0  0  0  0  0  0  0  0  0  0  0  0
   20.5634   19.3287   24.2906 H   0  0  0  0  0  0  0  0  0  0  0  0
   20.1078   19.1399   22.1688 C   0  0  0  0  0  0  0  0  0  0  0  0
   20.5859   18.7360   21.2659 H   0  0  0  0  0  0  0  0  0  0  0  0
   19.9716   20.2174   22.0019 H   0  0  0  0  0  0  0  0  0  0  0  0
   18.7293   18.4732   22.3655 C   0  0  0  0  0  0  0  0  0  0  0  0
   18.8625   17.3951   22.5297 H   0  0  0  0  0  0  0  0  0  0  0  0
   18.2518   18.8777   23.2685 H   0  0  0  0  0  0  0  0  0  0  0  0
   17.8060   18.6986   21.1498 C   0  0  0  0  0  0  0  0  0  0  0  0
   18.2797   18.2937   20.2448 H   0  0  0  0  0  0  0  0  0  0  0  0
   17.6689   19.7761   20.9836 H   0  0  0  0  0  0  0  0  0  0  0  0
   16.4302   18.0320   21.3501 C   0  0  0  0  0  0  0  0  0  0  0  0
   16.5353   16.9478   21.4875 H   0  0  0  0  0  0  0  0  0  0  0  0
   15.7870   18.2022   20.4769 H   0  0  0  0  0  0  0  0  0  0  0  0
   15.9200   18.4414   22.2319 H   0  0  0  0  0  0  0  0  0  0  0  0
  1  2  1  0  0  0  0
  1  3  2  0  0  0  0
  1  4  1  0  0  0  0
  4  5  1  0  0  0  0
  4  6  1  0  0  0  0
  4  7  1  0  0  0  0
  7  8  1  0  0  0  0
  7  9  1  0  0  0  0
  7 10  1  0  0  0  0
 10 11  1  0  0  0  0
 10 12  1  0  0  0  0
 10 13  1  0  0  0  0
 13 14  1  0  0  0  0
 13 15  1  0  0  0  0
 13 16  1  0  0  0  0
 16 17  1  0  0  0  0
 16 18  1  0  0  0  0
 16 19  1  0  0  0  0
 19 20  1  0  0  0  0
 19 21  1  0  0  0  0
 19 22  1  0  0  0  0
M  END
> <VConfSearch Rank>
230

> <Conf_Id>
44

> <Delta U+W>
-0.155

> <U+W>
-53.314

> <U>
7.937

> <W>
-61.252

> <W(PB)>
-63.556

> <W(SA)>
2.304

> <Valence>
7.358

> <Coulomb>
-0.021

> <VdW>
0.600

> <VdW6>
-7.363

> <VdW12>
7.964

> <Bond>
0.121

> <Angle>
2.425

> <Pdih>
4.811

> <Idih>
0.001

> <Tether>
0.000

$$$$
VeraChem MOL file


 22 21  0  0  0  0  0  0  0  0999 V2000     
   17.9533   16.0065   21.8648 C   0  0  0  0  0  0  0  0  0  0  0  0
   17.3060   15.7247   22.8540 O   0  5  0  0  0  0  0  0  0  0  0  0
   18.6925   15.2246   21.2999 O   0  0  0  0  0  0  0  0  0  0  0  0
   17.8141   17.4139   21.2912 C   0  0  0  0  0  0  0  0  0  0  0  0
   16.7440   17.6502   21.2608 H   0  0  0  0  0  0  0  0  0  0  0  0
   18.1669   17.4058   20.2527 H   0  0  0  0  0  0  0  0  0  0  0  0
   18.5618   18.5044   22.1020 C   0  0  0  0  0  0  0  0  0  0  0  0
   18.2768   19.4876   21.7068 H   0  0  0  0  0  0  0  0  0  0  0  0
   18.2272   18.4733   23.1482 H   0  0  0  0  0  0  0  0  0  0  0  0
   20.0996   18.3423   22.0378 C   0  0  0  0  0  0  0  0  0  0  0  0
   20.4369   18.4159   20.9949 H   0  0  0  0  0  0  0  0  0  0  0  0
   20.3703   17.3339   22.3796 H   0  0  0  0  0  0  0  0  0  0  0  0
   20.8649   19.3707   22.9042 C   0  0  0  0  0  0  0  0  0  0  0  0
   20.5271   19.2969   23.9470 H   0  0  0  0  0  0  0  0  0  0  0  0
   21.9299   19.1014   22.9033 H   0  0  0  0  0  0  0  0  0  0  0  0
   20.7164   20.8274   22.4098 C   0  0  0  0  0  0  0  0  0  0  0  0
   19.6680   21.1457   22.4784 H   0  0  0  0  0  0  0  0  0  0  0  0
   21.0025   20.8904   21.3508 H   0  0  0  0  0  0  0  0  0  0  0  0
   21.5886   21.7957   23.2341 C   0  0  0  0  0  0  0  0  0  0  0  0
   21.3051   21.7730   24.2945 H   0  0  0  0  0  0  0  0  0  0  0  0
   21.4698   22.8256   22.8734 H   0  0  0  0  0  0  0  0  0  0  0  0
   22.6511   21.5304   23.1573 H   0  0  0  0  0  0  0  0  0  0  0  0
  1  2  1  0  0  0  0
  1  3  2  0  0  0  0
  1  4  1  0  0  0  0
  4  5  1  0  0  0  0
  4  6  1  0  0  0  0
  4  7  1  0  0  0  0
  7  8  1  0  0  0  0
  7  9  1  0  0  0  0
  7 10  1  0  0  0  0
 10 11  1  0  0  0  0
 10 12  1  0  0  0  0
 10 13  1  0  0  0  0
 13 14  1  0  0  0  0
 13 15  1  0  0  0  0
 13 16  1  0  0  0  0
 16 17  1  0  0  0  0
 16 18  1  0  0  0  0
 16 19  1  0  0  0  0
 19 20  1  0  0  0  0
 19 21  1  0  0  0  0
 19 22  1  0  0  0  0
M  END
> <VConfSearch Rank>
231

> <Conf_Id>
53

> <Delta U+W>
0.723

> <U+W>
-52.436

> <U>
8.587

> <W>
-61.022

> <W(PB)>
-63.285

> <W(SA)>
2.263

> <Valence>
7.933

> <Coulomb>
-0.124

> <VdW>
0.778

> <VdW6>
-7.981

> <VdW12>
8.759

> <Bond>
0.160

> <Angle>
2.698

> <Pdih>
5.074

> <Idih>
0.001

> <Tether>
0.000

$$$$
VeraChem MOL file


 22 21  0  0  0  0  0  0  0  0999 V2000     
   19.6760   19.3729   25.6674 C   0  0  0  0  0  0  0  0  0  0  0  0
   20.7250   19.8635   26.0356 O   0  5  0  0  0  0  0  0  0  0  0  0
   18.7409   19.1488   26.4104 O   0  0  0  0  0  0  0  0  0  0  0  0
   19.5157   19.0409   24.1882 C   0  0  0  0  0  0  0  0  0  0  0  0
   18.8462   18.1767   24.1033 H   0  0  0  0  0  0  0  0  0  0  0  0
   20.4977   18.7371   23.8087 H   0  0  0  0  0  0  0  0  0  0  0  0
   18.9636   20.2303   23.3625 C   0  0  0  0  0  0  0  0  0  0  0  0
   18.0498   20.6010   23.8471 H   0  0  0  0  0  0  0  0  0  0  0  0
   19.6856   21.0579   23.3941 H   0  0  0  0  0  0  0  0  0  0  0  0
   18.6329   19.8857   21.8885 C   0  0  0  0  0  0  0  0  0  0  0  0
   18.2086   20.7872   21.4257 H   0  0  0  0  0  0  0  0  0  0  0  0
   17.8389   19.1275   21.8472 H   0  0  0  0  0  0  0  0  0  0  0  0
   19.8504   19.4361   21.0416 C   0  0  0  0  0  0  0  0  0  0  0  0
   19.7316   19.8322   20.0238 H   0  0  0  0  0  0  0  0  0  0  0  0
   20.7720   19.8840   21.4380 H   0  0  0  0  0  0  0  0  0  0  0  0
   19.9962   17.8998   20.9451 C   0  0  0  0  0  0  0  0  0  0  0  0
   19.0900   17.4724   20.4941 H   0  0  0  0  0  0  0  0  0  0  0  0
   20.0882   17.4569   21.9439 H   0  0  0  0  0  0  0  0  0  0  0  0
   21.2220   17.5004   20.0995 C   0  0  0  0  0  0  0  0  0  0  0  0
   21.1409   17.8954   19.0783 H   0  0  0  0  0  0  0  0  0  0  0  0
   21.3078   16.4079   20.0345 H   0  0  0  0  0  0  0  0  0  0  0  0
   22.1482   17.8872   20.5444 H   0  0  0  0  0  0  0  0  0  0  0  0
  1  2  1  0  0  0  0
  1  3  2  0  0  0  0
  1  4  1  0  0  0  0
  4  5  1  0  0  0  0
  4  6  1  0  0  0  0
  4  7  1  0  0  0  0
  7  8  1  0  0  0  0
  7  9  1  0  0  0  0
  7 10  1  0  0  0  0
 10 11  1  0  0  0  0
 10 12  1  0  0  0  0
 10 13  1  0  0  0  0
 13 14  1  0  0  0  0
 13 15  1  0  0  0  0
 13 16  1  0  0  0  0
 16 17  1  0  0  0  0
 16 18  1  0  0  0  0
 16 19  1  0  0  0  0
 19 20  1  0  0  0  0
 19 21  1  0  0  0  0
 19 22  1  0  0  0  0
M  END
> <VConfSearch Rank>
232

> <Conf_Id>
5

> <Delta U+W>
2.167

> <U+W>
-50.993

> <U>
10.045

> <W>
-61.037

> <W(PB)>
-63.303

> <W(SA)>
2.266

> <Valence>
10.100

> <Coulomb>
-0.883

> <VdW>
0.828

> <VdW6>
-8.177

> <VdW12>
9.005

> <Bond>
0.182

> <Angle>
2.988

> <Pdih>
6.930

> <Idih>
0.001

> <Tether>
0.000

$$$$
VeraChem MOL file


 22 21  0  0  0  0  0  0  0  0999 V2000     
   18.1532   20.9341   20.3243 C   0  0  0  0  0  0  0  0  0  0  0  0
   18.7977   21.1212   19.3113 O   0  5  0  0  0  0  0  0  0  0  0  0
   17.0940   21.4815   20.5583 O   0  0  0  0  0  0  0  0  0  0  0  0
   18.7154   19.9773   21.3696 C   0  0  0  0  0  0  0  0  0  0  0  0
   19.2591   19.1883   20.8379 H   0  0  0  0  0  0  0  0  0  0  0  0
   17.8725   19.5062   21.8891 H   0  0  0  0  0  0  0  0  0  0  0  0
   19.6474   20.6812   22.3880 C   0  0  0  0  0  0  0  0  0  0  0  0
   20.5257   21.0774   21.8599 H   0  0  0  0  0  0  0  0  0  0  0  0
   19.1208   21.5512   22.8041 H   0  0  0  0  0  0  0  0  0  0  0  0
   20.1093   19.7796   23.5603 C   0  0  0  0  0  0  0  0  0  0  0  0
   19.2424   19.4587   24.1539 H   0  0  0  0  0  0  0  0  0  0  0  0
   20.7186   20.3986   24.2331 H   0  0  0  0  0  0  0  0  0  0  0  0
   20.9549   18.5519   23.1366 C   0  0  0  0  0  0  0  0  0  0  0  0
   21.4896   18.7666   22.2011 H   0  0  0  0  0  0  0  0  0  0  0  0
   21.7282   18.3823   23.8983 H   0  0  0  0  0  0  0  0  0  0  0  0
   20.1252   17.2546   22.9974 C   0  0  0  0  0  0  0  0  0  0  0  0
   19.3195   17.3878   22.2657 H   0  0  0  0  0  0  0  0  0  0  0  0
   19.6430   17.0222   23.9570 H   0  0  0  0  0  0  0  0  0  0  0  0
   21.0058   16.0636   22.5693 C   0  0  0  0  0  0  0  0  0  0  0  0
   21.4766   16.2539   21.5959 H   0  0  0  0  0  0  0  0  0  0  0  0
   20.4044   15.1495   22.4819 H   0  0  0  0  0  0  0  0  0  0  0  0
   21.8002   15.8778   23.3040 H   0  0  0  0  0  0  0  0  0  0  0  0
  1  2  1  0  0  0  0
  1  3  2  0  0  0  0
  1  4  1  0  0  0  0
  4  5  1  0  0  0  0
  4  6  1  0  0  0  0
  4  7  1  0  0  0  0
  7  8  1  0  0  0  0
  7  9  1  0  0  0  0
  7 10  1  0  0  0  0
 10 11  1  0  0  0  0
 10 12  1  0  0  0  0
 10 13  1  0  0  0  0
 13 14  1  0  0  0  0
 13 15  1  0  0  0  0
 13 16  1  0  0  0  0
 16 17  1  0  0  0  0
 16 18  1  0  0  0  0
 16 19  1  0  0  0  0
 19 20  1  0  0  0  0
 19 21  1  0  0  0  0
 19 22  1  0  0  0  0
M  END
> <VConfSearch Rank>
233

> <Conf_Id>
6

> <Delta U+W>
2.118

> <U+W>
-51.042

> <U>
10.045

> <W>
-61.086

> <W(PB)>
-63.356

> <W(SA)>
2.270

> <Valence>
10.100

> <Coulomb>
-0.883

> <VdW>
0.828

> <VdW6>
-8.177

> <VdW12>
9.004

> <Bond>
0.182

> <Angle>
2.988

> <Pdih>
6.930

> <Idih>
0.001

> <Tether>
0.000

$$$$
VeraChem MOL file


 22 21  0  0  0  0  0  0  0  0999 V2000     
   17.2747   18.6848   23.8879 C   0  0  0  0  0  0  0  0  0  0  0  0
   17.3961   17.7277   24.6274 O   0  5  0  0  0  0  0  0  0  0  0  0
   16.5810   18.6770   22.8900 O   0  0  0  0  0  0  0  0  0  0  0  0
   17.9733   19.9887   24.2688 C   0  0  0  0  0  0  0  0  0  0  0  0
   17.5321   20.3082   25.2200 H   0  0  0  0  0  0  0  0  0  0  0  0
   17.7185   20.7587   23.5306 H   0  0  0  0  0  0  0  0  0  0  0  0
   19.5161   19.8914   24.4346 C   0  0  0  0  0  0  0  0  0  0  0  0
   19.8457   20.7429   25.0452 H   0  0  0  0  0  0  0  0  0  0  0  0
   19.7752   18.9904   25.0080 H   0  0  0  0  0  0  0  0  0  0  0  0
   20.3153   19.9250   23.1084 C   0  0  0  0  0  0  0  0  0  0  0  0
   21.3828   20.0074   23.3546 H   0  0  0  0  0  0  0  0  0  0  0  0
   20.0578   20.8319   22.5444 H   0  0  0  0  0  0  0  0  0  0  0  0
   20.1068   18.6811   22.2151 C   0  0  0  0  0  0  0  0  0  0  0  0
   20.2649   17.7700   22.8083 H   0  0  0  0  0  0  0  0  0  0  0  0
   19.0719   18.6523   21.8514 H   0  0  0  0  0  0  0  0  0  0  0  0
   21.0631   18.6820   21.0037 C   0  0  0  0  0  0  0  0  0  0  0  0
   22.1047   18.7018   21.3528 H   0  0  0  0  0  0  0  0  0  0  0  0
   20.9073   19.5936   20.4103 H   0  0  0  0  0  0  0  0  0  0  0  0
   20.8470   17.4450   20.1090 C   0  0  0  0  0  0  0  0  0  0  0  0
   21.0269   16.5185   20.6700 H   0  0  0  0  0  0  0  0  0  0  0  0
   21.5336   17.4618   19.2526 H   0  0  0  0  0  0  0  0  0  0  0  0
   19.8205   17.4162   19.7205 H   0  0  0  0  0  0  0  0  0  0  0  0
  1  2  1  0  0  0  0
  1  3  2  0  0  0  0
  1  4  1  0  0  0  0
  4  5  1  0  0  0  0
  4  6  1  0  0  0  0
  4  7  1  0  0  0  0
  7  8  1  0  0  0  0
  7  9  1  0  0  0  0
  7 10  1  0  0  0  0
 10 11  1  0  0  0  0
 10 12  1  0  0  0  0
 10 13  1  0  0  0  0
 13 14  1  0  0  0  0
 13 15  1  0  0  0  0
 13 16  1  0  0  0  0
 16 17  1  0  0  0  0
 16 18  1  0  0  0  0
 16 19  1  0  0  0  0
 19 20  1  0  0  0  0
 19 21  1  0  0  0  0
 19 22  1  0  0  0  0
M  END
> <VConfSearch Rank>
234

> <Conf_Id>
8

> <Delta U+W>
1.886

> <U+W>
-51.274

> <U>
11.237

> <W>
-62.510

> <W(PB)>
-64.777

> <W(SA)>
2.267

> <Valence>
9.029

> <Coulomb>
1.667

> <VdW>
0.540

> <VdW6>
-8.825

> <VdW12>
9.365

> <Bond>
0.186

> <Angle>
3.195

> <Pdih>
5.642

> <Idih>
0.007

> <Tether>
0.000

$$$$
VeraChem MOL file


 22 21  0  0  0  0  0  0  0  0999 V2000     
   19.7137   17.7813   19.5889 C   0  0  0  0  0  0  0  0  0  0  0  0
   18.7243   18.4346   19.3222 O   0  5  0  0  0  0  0  0  0  0  0  0
   19.8382   16.6052   19.3085 O   0  0  0  0  0  0  0  0  0  0  0  0
   20.8765   18.4811   20.2870 C   0  0  0  0  0  0  0  0  0  0  0  0
   20.7290   19.5645   20.2151 H   0  0  0  0  0  0  0  0  0  0  0  0
   21.7835   18.2543   19.7147 H   0  0  0  0  0  0  0  0  0  0  0  0
   21.0823   18.0506   21.7654 C   0  0  0  0  0  0  0  0  0  0  0  0
   21.3058   16.9750   21.7894 H   0  0  0  0  0  0  0  0  0  0  0  0
   21.9694   18.5576   22.1683 H   0  0  0  0  0  0  0  0  0  0  0  0
   19.8725   18.3270   22.6920 C   0  0  0  0  0  0  0  0  0  0  0  0
   20.0960   17.8985   23.6771 H   0  0  0  0  0  0  0  0  0  0  0  0
   18.9880   17.7946   22.3161 H   0  0  0  0  0  0  0  0  0  0  0  0
   19.5455   19.8325   22.8462 C   0  0  0  0  0  0  0  0  0  0  0  0
   20.4334   20.3717   23.2032 H   0  0  0  0  0  0  0  0  0  0  0  0
   19.2978   20.2520   21.8625 H   0  0  0  0  0  0  0  0  0  0  0  0
   18.3555   20.1086   23.7947 C   0  0  0  0  0  0  0  0  0  0  0  0
   17.4700   19.5579   23.4484 H   0  0  0  0  0  0  0  0  0  0  0  0
   18.0996   21.1755   23.7355 H   0  0  0  0  0  0  0  0  0  0  0  0
   18.6484   19.7515   25.2684 C   0  0  0  0  0  0  0  0  0  0  0  0
   18.7910   18.6718   25.3996 H   0  0  0  0  0  0  0  0  0  0  0  0
   17.8111   20.0554   25.9099 H   0  0  0  0  0  0  0  0  0  0  0  0
   19.5508   20.2646   25.6252 H   0  0  0  0  0  0  0  0  0  0  0  0
  1  2  1  0  0  0  0
  1  3  2  0  0  0  0
  1  4  1  0  0  0  0
  4  5  1  0  0  0  0
  4  6  1  0  0  0  0
  4  7  1  0  0  0  0
  7  8  1  0  0  0  0
  7  9  1  0  0  0  0
  7 10  1  0  0  0  0
 10 11  1  0  0  0  0
 10 12  1  0  0  0  0
 10 13  1  0  0  0  0
 13 14  1  0  0  0  0
 13 15  1  0  0  0  0
 13 16  1  0  0  0  0
 16 17  1  0  0  0  0
 16 18  1  0  0  0  0
 16 19  1  0  0  0  0
 19 20  1  0  0  0  0
 19 21  1  0  0  0  0
 19 22  1  0  0  0  0
M  END
> <VConfSearch Rank>
235

> <Conf_Id>
93

> <Delta U+W>
1.836

> <U+W>
-51.323

> <U>
10.427

> <W>
-61.751

> <W(PB)>
-63.980

> <W(SA)>
2.230

> <Valence>
8.446

> <Coulomb>
1.306

> <VdW>
0.676

> <VdW6>
-8.928

> <VdW12>
9.604

> <Bond>
0.209

> <Angle>
3.066

> <Pdih>
5.170

> <Idih>
0.001

> <Tether>
0.000

$$$$
VeraChem MOL file


 22 21  0  0  0  0  0  0  0  0999 V2000     
   17.9220   17.2191   24.1016 C   0  0  0  0  0  0  0  0  0  0  0  0
   16.9341   17.5506   24.7272 O   0  5  0  0  0  0  0  0  0  0  0  0
   18.9158   16.7457   24.6164 O   0  0  0  0  0  0  0  0  0  0  0  0
   17.8994   17.3793   22.5841 C   0  0  0  0  0  0  0  0  0  0  0  0
   16.9707   16.9228   22.2226 H   0  0  0  0  0  0  0  0  0  0  0  0
   18.7192   16.7914   22.1563 H   0  0  0  0  0  0  0  0  0  0  0  0
   17.9683   18.8536   22.0993 C   0  0  0  0  0  0  0  0  0  0  0  0
   17.8890   18.8770   21.0041 H   0  0  0  0  0  0  0  0  0  0  0  0
   17.0891   19.3900   22.4825 H   0  0  0  0  0  0  0  0  0  0  0  0
   19.2439   19.6167   22.5344 C   0  0  0  0  0  0  0  0  0  0  0  0
   19.3129   19.6291   23.6308 H   0  0  0  0  0  0  0  0  0  0  0  0
   19.1366   20.6622   22.2193 H   0  0  0  0  0  0  0  0  0  0  0  0
   20.5468   19.0291   21.9388 C   0  0  0  0  0  0  0  0  0  0  0  0
   20.6637   17.9913   22.2767 H   0  0  0  0  0  0  0  0  0  0  0  0
   20.4738   18.9966   20.8434 H   0  0  0  0  0  0  0  0  0  0  0  0
   21.8169   19.8097   22.3506 C   0  0  0  0  0  0  0  0  0  0  0  0
   22.6988   19.2497   22.0103 H   0  0  0  0  0  0  0  0  0  0  0  0
   21.8838   19.8571   23.4463 H   0  0  0  0  0  0  0  0  0  0  0  0
   21.8795   21.2361   21.7622 C   0  0  0  0  0  0  0  0  0  0  0  0
   21.0853   21.8740   22.1690 H   0  0  0  0  0  0  0  0  0  0  0  0
   21.7794   21.2150   20.6692 H   0  0  0  0  0  0  0  0  0  0  0  0
   22.8403   21.7086   22.0041 H   0  0  0  0  0  0  0  0  0  0  0  0
  1  2  1  0  0  0  0
  1  3  2  0  0  0  0
  1  4  1  0  0  0  0
  4  5  1  0  0  0  0
  4  6  1  0  0  0  0
  4  7  1  0  0  0  0
  7  8  1  0  0  0  0
  7  9  1  0  0  0  0
  7 10  1  0  0  0  0
 10 11  1  0  0  0  0
 10 12  1  0  0  0  0
 10 13  1  0  0  0  0
 13 14  1  0  0  0  0
 13 15  1  0  0  0  0
 13 16  1  0  0  0  0
 16 17  1  0  0  0  0
 16 18  1  0  0  0  0
 16 19  1  0  0  0  0
 19 20  1  0  0  0  0
 19 21  1  0  0  0  0
 19 22  1  0  0  0  0
M  END
> <VConfSearch Rank>
236

> <Conf_Id>
70

> <Delta U+W>
1.803

> <U+W>
-51.356

> <U>
10.428

> <W>
-61.784

> <W(PB)>
-64.014

> <W(SA)>
2.230

> <Valence>
8.445

> <Coulomb>
1.306

> <VdW>
0.676

> <VdW6>
-8.929

> <VdW12>
9.605

> <Bond>
0.209

> <Angle>
3.066

> <Pdih>
5.170

> <Idih>
0.001

> <Tether>
0.000

$$$$
VeraChem MOL file


 22 21  0  0  0  0  0  0  0  0999 V2000     
   19.0116   16.2941   20.6029 C   0  0  0  0  0  0  0  0  0  0  0  0
   20.1028   15.9184   20.2221 O   0  5  0  0  0  0  0  0  0  0  0  0
   18.0883   16.5464   19.8541 O   0  0  0  0  0  0  0  0  0  0  0  0
   18.7840   16.4360   22.1053 C   0  0  0  0  0  0  0  0  0  0  0  0
   19.2014   15.5436   22.5864 H   0  0  0  0  0  0  0  0  0  0  0  0
   17.7045   16.4250   22.2985 H   0  0  0  0  0  0  0  0  0  0  0  0
   19.4265   17.7055   22.7223 C   0  0  0  0  0  0  0  0  0  0  0  0
   19.3279   17.6600   23.8152 H   0  0  0  0  0  0  0  0  0  0  0  0
   20.5017   17.7037   22.4996 H   0  0  0  0  0  0  0  0  0  0  0  0
   18.7748   19.0099   22.2043 C   0  0  0  0  0  0  0  0  0  0  0  0
   17.6887   18.9518   22.3584 H   0  0  0  0  0  0  0  0  0  0  0  0
   18.9289   19.0992   21.1201 H   0  0  0  0  0  0  0  0  0  0  0  0
   19.3031   20.2834   22.9064 C   0  0  0  0  0  0  0  0  0  0  0  0
   18.7042   21.1404   22.5691 H   0  0  0  0  0  0  0  0  0  0  0  0
   19.1431   20.2000   23.9900 H   0  0  0  0  0  0  0  0  0  0  0  0
   20.7944   20.5702   22.6203 C   0  0  0  0  0  0  0  0  0  0  0  0
   20.9642   20.6010   21.5351 H   0  0  0  0  0  0  0  0  0  0  0  0
   21.4189   19.7602   23.0194 H   0  0  0  0  0  0  0  0  0  0  0  0
   21.2439   21.9053   23.2472 C   0  0  0  0  0  0  0  0  0  0  0  0
   20.6650   22.7452   22.8412 H   0  0  0  0  0  0  0  0  0  0  0  0
   22.3051   22.0930   23.0380 H   0  0  0  0  0  0  0  0  0  0  0  0
   21.1104   21.8917   24.3369 H   0  0  0  0  0  0  0  0  0  0  0  0
  1  2  1  0  0  0  0
  1  3  2  0  0  0  0
  1  4  1  0  0  0  0
  4  5  1  0  0  0  0
  4  6  1  0  0  0  0
  4  7  1  0  0  0  0
  7  8  1  0  0  0  0
  7  9  1  0  0  0  0
  7 10  1  0  0  0  0
 10 11  1  0  0  0  0
 10 12  1  0  0  0  0
 10 13  1  0  0  0  0
 13 14  1  0  0  0  0
 13 15  1  0  0  0  0
 13 16  1  0  0  0  0
 16 17  1  0  0  0  0
 16 18  1  0  0  0  0
 16 19  1  0  0  0  0
 19 20  1  0  0  0  0
 19 21  1  0  0  0  0
 19 22  1  0  0  0  0
M  END
> <VConfSearch Rank>
237

> <Conf_Id>
85

> <Delta U+W>
0.707

> <U+W>
-52.452

> <U>
8.925

> <W>
-61.378

> <W(PB)>
-63.661

> <W(SA)>
2.283

> <Valence>
7.881

> <Coulomb>
0.349

> <VdW>
0.695

> <VdW6>
-8.049

> <VdW12>
8.743

> <Bond>
0.156

> <Angle>
2.660

> <Pdih>
5.064

> <Idih>
0.001

> <Tether>
0.000

$$$$
VeraChem MOL file


 22 21  0  0  0  0  0  0  0  0999 V2000     
   17.5938   16.6199   21.4430 C   0  0  0  0  0  0  0  0  0  0  0  0
   17.8142   16.1726   20.3347 O   0  5  0  0  0  0  0  0  0  0  0  0
   17.3238   15.9285   22.4053 O   0  0  0  0  0  0  0  0  0  0  0  0
   17.6350   18.1336   21.6336 C   0  0  0  0  0  0  0  0  0  0  0  0
   16.7438   18.4150   22.2068 H   0  0  0  0  0  0  0  0  0  0  0  0
   17.5454   18.6136   20.6516 H   0  0  0  0  0  0  0  0  0  0  0  0
   18.9030   18.6450   22.3659 C   0  0  0  0  0  0  0  0  0  0  0  0
   18.7654   19.7099   22.5920 H   0  0  0  0  0  0  0  0  0  0  0  0
   19.0058   18.1219   23.3266 H   0  0  0  0  0  0  0  0  0  0  0  0
   20.1890   18.4626   21.5269 C   0  0  0  0  0  0  0  0  0  0  0  0
   20.1121   19.0583   20.6071 H   0  0  0  0  0  0  0  0  0  0  0  0
   20.2658   17.4143   21.2075 H   0  0  0  0  0  0  0  0  0  0  0  0
   21.4943   18.8348   22.2741 C   0  0  0  0  0  0  0  0  0  0  0  0
   21.6284   18.1804   23.1463 H   0  0  0  0  0  0  0  0  0  0  0  0
   22.3341   18.6111   21.6020 H   0  0  0  0  0  0  0  0  0  0  0  0
   21.5990   20.3213   22.6972 C   0  0  0  0  0  0  0  0  0  0  0  0
   21.0115   20.9536   22.0172 H   0  0  0  0  0  0  0  0  0  0  0  0
   22.6434   20.6446   22.5883 H   0  0  0  0  0  0  0  0  0  0  0  0
   21.1733   20.5691   24.1616 C   0  0  0  0  0  0  0  0  0  0  0  0
   20.1309   20.2810   24.3384 H   0  0  0  0  0  0  0  0  0  0  0  0
   21.2752   21.6319   24.4163 H   0  0  0  0  0  0  0  0  0  0  0  0
   21.8045   19.9963   24.8534 H   0  0  0  0  0  0  0  0  0  0  0  0
  1  2  1  0  0  0  0
  1  3  2  0  0  0  0
  1  4  1  0  0  0  0
  4  5  1  0  0  0  0
  4  6  1  0  0  0  0
  4  7  1  0  0  0  0
  7  8  1  0  0  0  0
  7  9  1  0  0  0  0
  7 10  1  0  0  0  0
 10 11  1  0  0  0  0
 10 12  1  0  0  0  0
 10 13  1  0  0  0  0
 13 14  1  0  0  0  0
 13 15  1  0  0  0  0
 13 16  1  0  0  0  0
 16 17  1  0  0  0  0
 16 18  1  0  0  0  0
 16 19  1  0  0  0  0
 19 20  1  0  0  0  0
 19 21  1  0  0  0  0
 19 22  1  0  0  0  0
M  END
> <VConfSearch Rank>
238

> <Conf_Id>
82

> <Delta U+W>
3.438

> <U+W>
-49.721

> <U>
11.773

> <W>
-61.495

> <W(PB)>
-63.749

> <W(SA)>
2.254

> <Valence>
10.419

> <Coulomb>
0.565

> <VdW>
0.789

> <VdW6>
-8.847

> <VdW12>
9.636

> <Bond>
0.200

> <Angle>
3.187

> <Pdih>
7.032

> <Idih>
0.001

> <Tether>
0.000

$$$$
VeraChem MOL file


 22 21  0  0  0  0  0  0  0  0999 V2000     
   21.4072   15.9809   21.7494 C   0  0  0  0  0  0  0  0  0  0  0  0
   22.1939   16.1420   20.8372 O   0  5  0  0  0  0  0  0  0  0  0  0
   21.6708   15.3648   22.7633 O   0  0  0  0  0  0  0  0  0  0  0  0
   20.0050   16.5651   21.6018 C   0  0  0  0  0  0  0  0  0  0  0  0
   19.3377   16.0596   22.3103 H   0  0  0  0  0  0  0  0  0  0  0  0
   19.6500   16.3121   20.5958 H   0  0  0  0  0  0  0  0  0  0  0  0
   19.9349   18.1014   21.8032 C   0  0  0  0  0  0  0  0  0  0  0  0
   20.6423   18.5918   21.1202 H   0  0  0  0  0  0  0  0  0  0  0  0
   18.9296   18.4409   21.5240 H   0  0  0  0  0  0  0  0  0  0  0  0
   20.2310   18.5247   23.2606 C   0  0  0  0  0  0  0  0  0  0  0  0
   21.1893   18.0893   23.5752 H   0  0  0  0  0  0  0  0  0  0  0  0
   19.4679   18.0990   23.9263 H   0  0  0  0  0  0  0  0  0  0  0  0
   20.3053   20.0573   23.4755 C   0  0  0  0  0  0  0  0  0  0  0  0
   20.5748   20.2301   24.5264 H   0  0  0  0  0  0  0  0  0  0  0  0
   21.1280   20.4810   22.8834 H   0  0  0  0  0  0  0  0  0  0  0  0
   18.9876   20.8182   23.1850 C   0  0  0  0  0  0  0  0  0  0  0  0
   18.8870   21.6362   23.9117 H   0  0  0  0  0  0  0  0  0  0  0  0
   18.1233   20.1592   23.3459 H   0  0  0  0  0  0  0  0  0  0  0  0
   18.9380   21.4310   21.7675 C   0  0  0  0  0  0  0  0  0  0  0  0
   19.7573   22.1472   21.6235 H   0  0  0  0  0  0  0  0  0  0  0  0
   17.9927   21.9673   21.6140 H   0  0  0  0  0  0  0  0  0  0  0  0
   19.0185   20.6647   20.9882 H   0  0  0  0  0  0  0  0  0  0  0  0
  1  2  1  0  0  0  0
  1  3  2  0  0  0  0
  1  4  1  0  0  0  0
  4  5  1  0  0  0  0
  4  6  1  0  0  0  0
  4  7  1  0  0  0  0
  7  8  1  0  0  0  0
  7  9  1  0  0  0  0
  7 10  1  0  0  0  0
 10 11  1  0  0  0  0
 10 12  1  0  0  0  0
 10 13  1  0  0  0  0
 13 14  1  0  0  0  0
 13 15  1  0  0  0  0
 13 16  1  0  0  0  0
 16 17  1  0  0  0  0
 16 18  1  0  0  0  0
 16 19  1  0  0  0  0
 19 20  1  0  0  0  0
 19 21  1  0  0  0  0
 19 22  1  0  0  0  0
M  END
> <VConfSearch Rank>
239

> <Conf_Id>
94

> <Delta U+W>
3.471

> <U+W>
-49.688

> <U>
11.773

> <W>
-61.461

> <W(PB)>
-63.710

> <W(SA)>
2.248

> <Valence>
10.419

> <Coulomb>
0.566

> <VdW>
0.789

> <VdW6>
-8.847

> <VdW12>
9.636

> <Bond>
0.200

> <Angle>
3.187

> <Pdih>
7.032

> <Idih>
0.001

> <Tether>
0.000

$$$$
VeraChem MOL file


 22 21  0  0  0  0  0  0  0  0999 V2000     
   19.3974   19.4471   19.0903 C   0  0  0  0  0  0  0  0  0  0  0  0
   19.6235   20.3739   18.3376 O   0  5  0  0  0  0  0  0  0  0  0  0
   18.5208   18.6268   18.9027 O   0  0  0  0  0  0  0  0  0  0  0  0
   20.2480   19.3180   20.3488 C   0  0  0  0  0  0  0  0  0  0  0  0
   21.2535   19.6909   20.1207 H   0  0  0  0  0  0  0  0  0  0  0  0
   20.3409   18.2509   20.5808 H   0  0  0  0  0  0  0  0  0  0  0  0
   19.6533   20.0874   21.5566 C   0  0  0  0  0  0  0  0  0  0  0  0
   19.4961   21.1350   21.2650 H   0  0  0  0  0  0  0  0  0  0  0  0
   18.6593   19.6862   21.7948 H   0  0  0  0  0  0  0  0  0  0  0  0
   20.5562   20.0553   22.8153 C   0  0  0  0  0  0  0  0  0  0  0  0
   20.0905   20.6635   23.6019 H   0  0  0  0  0  0  0  0  0  0  0  0
   21.5081   20.5508   22.5812 H   0  0  0  0  0  0  0  0  0  0  0  0
   20.8595   18.6402   23.3745 C   0  0  0  0  0  0  0  0  0  0  0  0
   21.4689   18.0855   22.6491 H   0  0  0  0  0  0  0  0  0  0  0  0
   21.4870   18.7450   24.2699 H   0  0  0  0  0  0  0  0  0  0  0  0
   19.6142   17.7933   23.7351 C   0  0  0  0  0  0  0  0  0  0  0  0
   19.9506   16.8104   24.0923 H   0  0  0  0  0  0  0  0  0  0  0  0
   19.0144   17.6007   22.8356 H   0  0  0  0  0  0  0  0  0  0  0  0
   18.7301   18.4412   24.8225 C   0  0  0  0  0  0  0  0  0  0  0  0
   19.3144   18.6576   25.7262 H   0  0  0  0  0  0  0  0  0  0  0  0
   17.9099   17.7678   25.1025 H   0  0  0  0  0  0  0  0  0  0  0  0
   18.2846   19.3789   24.4673 H   0  0  0  0  0  0  0  0  0  0  0  0
  1  2  1  0  0  0  0
  1  3  2  0  0  0  0
  1  4  1  0  0  0  0
  4  5  1  0  0  0  0
  4  6  1  0  0  0  0
  4  7  1  0  0  0  0
  7  8  1  0  0  0  0
  7  9  1  0  0  0  0
  7 10  1  0  0  0  0
 10 11  1  0  0  0  0
 10 12  1  0  0  0  0
 10 13  1  0  0  0  0
 13 14  1  0  0  0  0
 13 15  1  0  0  0  0
 13 16  1  0  0  0  0
 16 17  1  0  0  0  0
 16 18  1  0  0  0  0
 16 19  1  0  0  0  0
 19 20  1  0  0  0  0
 19 21  1  0  0  0  0
 19 22  1  0  0  0  0
M  END
> <VConfSearch Rank>
240

> <Conf_Id>
56

> <Delta U+W>
0.853

> <U+W>
-52.307

> <U>
8.874

> <W>
-61.181

> <W(PB)>
-63.413

> <W(SA)>
2.232

> <Valence>
8.479

> <Coulomb>
-0.357

> <VdW>
0.753

> <VdW6>
-9.081

> <VdW12>
9.833

> <Bond>
0.221

> <Angle>
3.208

> <Pdih>
5.050

> <Idih>
0.000

> <Tether>
0.000

$$$$
VeraChem MOL file


 22 21  0  0  0  0  0  0  0  0999 V2000     
   19.0920   22.8047   23.1684 C   0  0  0  0  0  0  0  0  0  0  0  0
   20.1096   23.2055   22.6371 O   0  5  0  0  0  0  0  0  0  0  0  0
   18.3071   23.5378   23.7362 O   0  0  0  0  0  0  0  0  0  0  0  0
   18.7568   21.3127   23.1378 C   0  0  0  0  0  0  0  0  0  0  0  0
   17.7723   21.2084   22.6667 H   0  0  0  0  0  0  0  0  0  0  0  0
   18.6522   20.9796   24.1771 H   0  0  0  0  0  0  0  0  0  0  0  0
   19.7880   20.4169   22.4013 C   0  0  0  0  0  0  0  0  0  0  0  0
   19.8926   20.7598   21.3625 H   0  0  0  0  0  0  0  0  0  0  0  0
   20.7733   20.5307   22.8743 H   0  0  0  0  0  0  0  0  0  0  0  0
   19.3724   18.9298   22.4180 C   0  0  0  0  0  0  0  0  0  0  0  0
   18.3872   18.8185   21.9446 H   0  0  0  0  0  0  0  0  0  0  0  0
   19.2683   18.5893   23.4574 H   0  0  0  0  0  0  0  0  0  0  0  0
   20.3996   18.0405   21.6850 C   0  0  0  0  0  0  0  0  0  0  0  0
   20.5040   18.3806   20.6455 H   0  0  0  0  0  0  0  0  0  0  0  0
   21.3850   18.1514   22.1581 H   0  0  0  0  0  0  0  0  0  0  0  0
   19.9848   16.5543   21.7013 C   0  0  0  0  0  0  0  0  0  0  0  0
   19.0003   16.4391   21.2270 H   0  0  0  0  0  0  0  0  0  0  0  0
   19.8813   16.2098   22.7396 H   0  0  0  0  0  0  0  0  0  0  0  0
   21.0132   15.6696   20.9684 C   0  0  0  0  0  0  0  0  0  0  0  0
   21.1137   15.9722   19.9178 H   0  0  0  0  0  0  0  0  0  0  0  0
   20.7027   14.6169   20.9896 H   0  0  0  0  0  0  0  0  0  0  0  0
   22.0012   15.7412   21.4418 H   0  0  0  0  0  0  0  0  0  0  0  0
  1  2  1  0  0  0  0
  1  3  2  0  0  0  0
  1  4  1  0  0  0  0
  4  5  1  0  0  0  0
  4  6  1  0  0  0  0
  4  7  1  0  0  0  0
  7  8  1  0  0  0  0
  7  9  1  0  0  0  0
  7 10  1  0  0  0  0
 10 11  1  0  0  0  0
 10 12  1  0  0  0  0
 10 13  1  0  0  0  0
 13 14  1  0  0  0  0
 13 15  1  0  0  0  0
 13 16  1  0  0  0  0
 16 17  1  0  0  0  0
 16 18  1  0  0  0  0
 16 19  1  0  0  0  0
 19 20  1  0  0  0  0
 19 21  1  0  0  0  0
 19 22  1  0  0  0  0
M  END
> <VConfSearch Rank>
241

> <Conf_Id>
0

> <Delta U+W>
0.000

> <U+W>
-53.159

> <U>
6.763

> <W>
-59.922

> <W(PB)>
-62.256

> <W(SA)>
2.334

> <Valence>
7.600

> <Coulomb>
-2.139

> <VdW>
1.302

> <VdW6>
-6.786

> <VdW12>
8.088

> <Bond>
0.134

> <Angle>
2.720

> <Pdih>
4.746

> <Idih>
0.000

> <Tether>
0.000

$$$$
VeraChem MOL file


 22 21  0  0  0  0  0  0  0  0999 V2000     
   20.5325   22.9028   22.6712 C   0  0  0  0  0  0  0  0  0  0  0  0
   20.0637   23.6145   21.8051 O   0  5  0  0  0  0  0  0  0  0  0  0
   21.5706   23.1464   23.2538 O   0  0  0  0  0  0  0  0  0  0  0  0
   19.7884   21.6218   23.0312 C   0  0  0  0  0  0  0  0  0  0  0  0
   18.7147   21.8034   22.9014 H   0  0  0  0  0  0  0  0  0  0  0  0
   19.9564   21.4178   24.0955 H   0  0  0  0  0  0  0  0  0  0  0  0
   20.2322   20.4081   22.1778 C   0  0  0  0  0  0  0  0  0  0  0  0
   20.0698   20.6333   21.1146 H   0  0  0  0  0  0  0  0  0  0  0  0
   21.3114   20.2477   22.3087 H   0  0  0  0  0  0  0  0  0  0  0  0
   19.4647   19.1244   22.5613 C   0  0  0  0  0  0  0  0  0  0  0  0
   18.3862   19.2886   22.4305 H   0  0  0  0  0  0  0  0  0  0  0  0
   19.6282   18.9029   23.6249 H   0  0  0  0  0  0  0  0  0  0  0  0
   19.9092   17.9164   21.7090 C   0  0  0  0  0  0  0  0  0  0  0  0
   19.7460   18.1375   20.6453 H   0  0  0  0  0  0  0  0  0  0  0  0
   20.9877   17.7519   21.8395 H   0  0  0  0  0  0  0  0  0  0  0  0
   19.1427   16.6330   22.0916 C   0  0  0  0  0  0  0  0  0  0  0  0
   18.0634   16.7930   21.9605 H   0  0  0  0  0  0  0  0  0  0  0  0
   19.3051   16.4074   23.1547 H   0  0  0  0  0  0  0  0  0  0  0  0
   19.5894   15.4290   21.2384 C   0  0  0  0  0  0  0  0  0  0  0  0
   20.6598   15.2264   21.3748 H   0  0  0  0  0  0  0  0  0  0  0  0
   19.4089   15.6150   20.1715 H   0  0  0  0  0  0  0  0  0  0  0  0
   19.0345   14.5256   21.5234 H   0  0  0  0  0  0  0  0  0  0  0  0
  1  2  1  0  0  0  0
  1  3  2  0  0  0  0
  1  4  1  0  0  0  0
  4  5  1  0  0  0  0
  4  6  1  0  0  0  0
  4  7  1  0  0  0  0
  7  8  1  0  0  0  0
  7  9  1  0  0  0  0
  7 10  1  0  0  0  0
 10 11  1  0  0  0  0
 10 12  1  0  0  0  0
 10 13  1  0  0  0  0
 13 14  1  0  0  0  0
 13 15  1  0  0  0  0
 13 16  1  0  0  0  0
 16 17  1  0  0  0  0
 16 18  1  0  0  0  0
 16 19  1  0  0  0  0
 19 20  1  0  0  0  0
 19 21  1  0  0  0  0
 19 22  1  0  0  0  0
M  END
> <VConfSearch Rank>
242

> <Conf_Id>
10

> <Delta U+W>
-1.291

> <U+W>
-54.451

> <U>
5.779

> <W>
-60.230

> <W(PB)>
-62.557

> <W(SA)>
2.328

> <Valence>
7.101

> <Coulomb>
-2.079

> <VdW>
0.757

> <VdW6>
-6.496

> <VdW12>
7.253

> <Bond>
0.100

> <Angle>
2.262

> <Pdih>
4.738

> <Idih>
0.001

> <Tether>
0.000

$$$$
VeraChem MOL file


 22 21  0  0  0  0  0  0  0  0999 V2000     
   19.6878   15.0930   21.6540 C   0  0  0  0  0  0  0  0  0  0  0  0
   20.5795   14.4913   22.2190 O   0  5  0  0  0  0  0  0  0  0  0  0
   18.6052   14.6053   21.3957 O   0  0  0  0  0  0  0  0  0  0  0  0
   19.9334   16.5469   21.2665 C   0  0  0  0  0  0  0  0  0  0  0  0
   19.3711   16.7545   20.3481 H   0  0  0  0  0  0  0  0  0  0  0  0
   20.9977   16.6608   21.0278 H   0  0  0  0  0  0  0  0  0  0  0  0
   19.5256   17.5435   22.3795 C   0  0  0  0  0  0  0  0  0  0  0  0
   18.4611   17.4072   22.6159 H   0  0  0  0  0  0  0  0  0  0  0  0
   20.0878   17.3146   23.2955 H   0  0  0  0  0  0  0  0  0  0  0  0
   19.7840   19.0077   21.9630 C   0  0  0  0  0  0  0  0  0  0  0  0
   19.2192   19.2343   21.0484 H   0  0  0  0  0  0  0  0  0  0  0  0
   20.8480   19.1309   21.7224 H   0  0  0  0  0  0  0  0  0  0  0  0
   19.3788   19.9983   23.0787 C   0  0  0  0  0  0  0  0  0  0  0  0
   18.3320   19.8145   23.3570 H   0  0  0  0  0  0  0  0  0  0  0  0
   19.9783   19.8071   23.9792 H   0  0  0  0  0  0  0  0  0  0  0  0
   19.5237   21.4816   22.6664 C   0  0  0  0  0  0  0  0  0  0  0  0
   19.1073   22.1116   23.4645 H   0  0  0  0  0  0  0  0  0  0  0  0
   18.9203   21.6782   21.7694 H   0  0  0  0  0  0  0  0  0  0  0  0
   20.9866   21.9051   22.4114 C   0  0  0  0  0  0  0  0  0  0  0  0
   21.0446   22.9826   22.2101 H   0  0  0  0  0  0  0  0  0  0  0  0
   21.4099   21.3824   21.5447 H   0  0  0  0  0  0  0  0  0  0  0  0
   21.6158   21.6902   23.2850 H   0  0  0  0  0  0  0  0  0  0  0  0
  1  2  1  0  0  0  0
  1  3  2  0  0  0  0
  1  4  1  0  0  0  0
  4  5  1  0  0  0  0
  4  6  1  0  0  0  0
  4  7  1  0  0  0  0
  7  8  1  0  0  0  0
  7  9  1  0  0  0  0
  7 10  1  0  0  0  0
 10 11  1  0  0  0  0
 10 12  1  0  0  0  0
 10 13  1  0  0  0  0
 13 14  1  0  0  0  0
 13 15  1  0  0  0  0
 13 16  1  0  0  0  0
 16 17  1  0  0  0  0
 16 18  1  0  0  0  0
 16 19  1  0  0  0  0
 19 20  1  0  0  0  0
 19 21  1  0  0  0  0
 19 22  1  0  0  0  0
M  END
> <VConfSearch Rank>
243

> <Conf_Id>
37

> <Delta U+W>
-0.345

> <U+W>
-53.504

> <U>
6.751

> <W>
-60.255

> <W(PB)>
-62.592

> <W(SA)>
2.336

> <Valence>
7.602

> <Coulomb>
-1.744

> <VdW>
0.894

> <VdW6>
-7.110

> <VdW12>
8.004

> <Bond>
0.131

> <Angle>
2.489

> <Pdih>
4.982

> <Idih>
0.001

> <Tether>
0.000

$$$$
VeraChem MOL file


 22 21  0  0  0  0  0  0  0  0999 V2000     
   18.7579   22.1328   20.1494 C   0  0  0  0  0  0  0  0  0  0  0  0
   19.6947   22.6430   19.5676 O   0  5  0  0  0  0  0  0  0  0  0  0
   17.7674   22.7448   20.4968 O   0  0  0  0  0  0  0  0  0  0  0  0
   18.8393   20.6470   20.4812 C   0  0  0  0  0  0  0  0  0  0  0  0
   19.4120   20.1516   19.6879 H   0  0  0  0  0  0  0  0  0  0  0  0
   17.8233   20.2353   20.4529 H   0  0  0  0  0  0  0  0  0  0  0  0
   19.4888   20.3729   21.8600 C   0  0  0  0  0  0  0  0  0  0  0  0
   20.5004   20.8018   21.8764 H   0  0  0  0  0  0  0  0  0  0  0  0
   18.9116   20.8867   22.6412 H   0  0  0  0  0  0  0  0  0  0  0  0
   19.5593   18.8623   22.1722 C   0  0  0  0  0  0  0  0  0  0  0  0
   20.1314   18.3581   21.3825 H   0  0  0  0  0  0  0  0  0  0  0  0
   18.5466   18.4368   22.1573 H   0  0  0  0  0  0  0  0  0  0  0  0
   20.2119   18.5938   23.5478 C   0  0  0  0  0  0  0  0  0  0  0  0
   21.2430   18.9732   23.5488 H   0  0  0  0  0  0  0  0  0  0  0  0
   19.6707   19.1615   24.3170 H   0  0  0  0  0  0  0  0  0  0  0  0
   20.2102   17.1001   23.9481 C   0  0  0  0  0  0  0  0  0  0  0  0
   19.1798   16.7188   23.9544 H   0  0  0  0  0  0  0  0  0  0  0  0
   20.5802   17.0111   24.9788 H   0  0  0  0  0  0  0  0  0  0  0  0
   21.0843   16.2198   23.0287 C   0  0  0  0  0  0  0  0  0  0  0  0
   22.1132   16.6000   22.9829 H   0  0  0  0  0  0  0  0  0  0  0  0
   20.6838   16.1853   22.0079 H   0  0  0  0  0  0  0  0  0  0  0  0
   21.1212   15.1896   23.4058 H   0  0  0  0  0  0  0  0  0  0  0  0
  1  2  1  0  0  0  0
  1  3  2  0  0  0  0
  1  4  1  0  0  0  0
  4  5  1  0  0  0  0
  4  6  1  0  0  0  0
  4  7  1  0  0  0  0
  7  8  1  0  0  0  0
  7  9  1  0  0  0  0
  7 10  1  0  0  0  0
 10 11  1  0  0  0  0
 10 12  1  0  0  0  0
 10 13  1  0  0  0  0
 13 14  1  0  0  0  0
 13 15  1  0  0  0  0
 13 16  1  0  0  0  0
 16 17  1  0  0  0  0
 16 18  1  0  0  0  0
 16 19  1  0  0  0  0
 19 20  1  0  0  0  0
 19 21  1  0  0  0  0
 19 22  1  0  0  0  0
M  END
> <VConfSearch Rank>
244

> <Conf_Id>
38

> <Delta U+W>
-0.439

> <U+W>
-53.598

> <U>
6.751

> <W>
-60.350

> <W(PB)>
-62.659

> <W(SA)>
2.309

> <Valence>
7.602

> <Coulomb>
-1.744

> <VdW>
0.893

> <VdW6>
-7.110

> <VdW12>
8.004

> <Bond>
0.131

> <Angle>
2.489

> <Pdih>
4.981

> <Idih>
0.001

> <Tether>
0.000

$$$$
VeraChem MOL file


 22 21  0  0  0  0  0  0  0  0999 V2000     
   20.2881   16.0559   19.9294 C   0  0  0  0  0  0  0  0  0  0  0  0
   21.3663   15.5769   19.6386 O   0  5  0  0  0  0  0  0  0  0  0  0
   19.2810   15.8972   19.2681 O   0  0  0  0  0  0  0  0  0  0  0  0
   20.1991   16.9225   21.1805 C   0  0  0  0  0  0  0  0  0  0  0  0
   20.9231   16.5410   21.9105 H   0  0  0  0  0  0  0  0  0  0  0  0
   19.2005   16.7850   21.6098 H   0  0  0  0  0  0  0  0  0  0  0  0
   20.4702   18.4221   20.8917 C   0  0  0  0  0  0  0  0  0  0  0  0
   21.4354   18.5108   20.3740 H   0  0  0  0  0  0  0  0  0  0  0  0
   19.7101   18.8060   20.1974 H   0  0  0  0  0  0  0  0  0  0  0  0
   20.5093   19.3024   22.1638 C   0  0  0  0  0  0  0  0  0  0  0  0
   20.8452   20.3056   21.8720 H   0  0  0  0  0  0  0  0  0  0  0  0
   21.2642   18.9109   22.8592 H   0  0  0  0  0  0  0  0  0  0  0  0
   19.1413   19.4069   22.8819 C   0  0  0  0  0  0  0  0  0  0  0  0
   18.3861   19.7967   22.1858 H   0  0  0  0  0  0  0  0  0  0  0  0
   18.8056   18.4048   23.1769 H   0  0  0  0  0  0  0  0  0  0  0  0
   19.1798   20.2904   24.1508 C   0  0  0  0  0  0  0  0  0  0  0  0
   19.9422   19.9105   24.8448 H   0  0  0  0  0  0  0  0  0  0  0  0
   18.2158   20.2011   24.6703 H   0  0  0  0  0  0  0  0  0  0  0  0
   19.4443   21.7824   23.8528 C   0  0  0  0  0  0  0  0  0  0  0  0
   20.4499   21.9381   23.4430 H   0  0  0  0  0  0  0  0  0  0  0  0
   19.3657   22.3767   24.7723 H   0  0  0  0  0  0  0  0  0  0  0  0
   18.7139   22.1750   23.1334 H   0  0  0  0  0  0  0  0  0  0  0  0
  1  2  1  0  0  0  0
  1  3  2  0  0  0  0
  1  4  1  0  0  0  0
  4  5  1  0  0  0  0
  4  6  1  0  0  0  0
  4  7  1  0  0  0  0
  7  8  1  0  0  0  0
  7  9  1  0  0  0  0
  7 10  1  0  0  0  0
 10 11  1  0  0  0  0
 10 12  1  0  0  0  0
 10 13  1  0  0  0  0
 13 14  1  0  0  0  0
 13 15  1  0  0  0  0
 13 16  1  0  0  0  0
 16 17  1  0  0  0  0
 16 18  1  0  0  0  0
 16 19  1  0  0  0  0
 19 20  1  0  0  0  0
 19 21  1  0  0  0  0
 19 22  1  0  0  0  0
M  END
> <VConfSearch Rank>
245

> <Conf_Id>
60

> <Delta U+W>
0.386

> <U+W>
-52.773

> <U>
7.689

> <W>
-60.463

> <W(PB)>
-62.772

> <W(SA)>
2.309

> <Valence>
8.197

> <Coulomb>
-1.561

> <VdW>
1.053

> <VdW6>
-7.737

> <VdW12>
8.790

> <Bond>
0.181

> <Angle>
2.780

> <Pdih>
5.235

> <Idih>
0.001

> <Tether>
0.000

$$$$
VeraChem MOL file


 22 21  0  0  0  0  0  0  0  0999 V2000     
   18.6559   21.6974   19.9592 C   0  0  0  0  0  0  0  0  0  0  0  0
   19.5931   22.1618   19.3407 O   0  5  0  0  0  0  0  0  0  0  0  0
   17.5907   22.2665   20.0940 O   0  0  0  0  0  0  0  0  0  0  0  0
   18.8336   20.3358   20.6215 C   0  0  0  0  0  0  0  0  0  0  0  0
   19.5030   19.7430   19.9883 H   0  0  0  0  0  0  0  0  0  0  0  0
   17.8600   19.8314   20.6285 H   0  0  0  0  0  0  0  0  0  0  0  0
   19.3928   20.4395   22.0645 C   0  0  0  0  0  0  0  0  0  0  0  0
   20.3893   20.9017   22.0403 H   0  0  0  0  0  0  0  0  0  0  0  0
   18.7503   21.1188   22.6418 H   0  0  0  0  0  0  0  0  0  0  0  0
   19.4639   19.0810   22.8021 C   0  0  0  0  0  0  0  0  0  0  0  0
   18.4679   18.6179   22.8173 H   0  0  0  0  0  0  0  0  0  0  0  0
   19.7325   19.2764   23.8480 H   0  0  0  0  0  0  0  0  0  0  0  0
   20.4881   18.0979   22.1835 C   0  0  0  0  0  0  0  0  0  0  0  0
   20.2190   17.8991   21.1384 H   0  0  0  0  0  0  0  0  0  0  0  0
   21.4837   18.5618   22.1666 H   0  0  0  0  0  0  0  0  0  0  0  0
   20.5621   16.7420   22.9238 C   0  0  0  0  0  0  0  0  0  0  0  0
   21.2025   16.0610   22.3463 H   0  0  0  0  0  0  0  0  0  0  0  0
   19.5656   16.2799   22.9529 H   0  0  0  0  0  0  0  0  0  0  0  0
   21.1258   16.8545   24.3570 C   0  0  0  0  0  0  0  0  0  0  0  0
   22.1077   17.3454   24.3558 H   0  0  0  0  0  0  0  0  0  0  0  0
   21.2473   15.8577   24.8005 H   0  0  0  0  0  0  0  0  0  0  0  0
   20.4547   17.4272   25.0090 H   0  0  0  0  0  0  0  0  0  0  0  0
  1  2  1  0  0  0  0
  1  3  2  0  0  0  0
  1  4  1  0  0  0  0
  4  5  1  0  0  0  0
  4  6  1  0  0  0  0
  4  7  1  0  0  0  0
  7  8  1  0  0  0  0
  7  9  1  0  0  0  0
  7 10  1  0  0  0  0
 10 11  1  0  0  0  0
 10 12  1  0  0  0  0
 10 13  1  0  0  0  0
 13 14  1  0  0  0  0
 13 15  1  0  0  0  0
 13 16  1  0  0  0  0
 16 17  1  0  0  0  0
 16 18  1  0  0  0  0
 16 19  1  0  0  0  0
 19 20  1  0  0  0  0
 19 21  1  0  0  0  0
 19 22  1  0  0  0  0
M  END
> <VConfSearch Rank>
246

> <Conf_Id>
28

> <Delta U+W>
0.351

> <U+W>
-52.808

> <U>
7.689

> <W>
-60.498

> <W(PB)>
-62.768

> <W(SA)>
2.270

> <Valence>
8.197

> <Coulomb>
-1.561

> <VdW>
1.053

> <VdW6>
-7.737

> <VdW12>
8.791

> <Bond>
0.181

> <Angle>
2.780

> <Pdih>
5.235

> <Idih>
0.001

> <Tether>
0.000

$$$$
VeraChem MOL file


 22 21  0  0  0  0  0  0  0  0999 V2000     
   16.3473   17.9045   21.7396 C   0  0  0  0  0  0  0  0  0  0  0  0
   15.5869   18.0744   22.6719 O   0  5  0  0  0  0  0  0  0  0  0  0
   16.0638   18.1567   20.5852 O   0  0  0  0  0  0  0  0  0  0  0  0
   17.7414   17.3636   22.0369 C   0  0  0  0  0  0  0  0  0  0  0  0
   18.0625   16.7596   21.1798 H   0  0  0  0  0  0  0  0  0  0  0  0
   17.6685   16.6901   22.8993 H   0  0  0  0  0  0  0  0  0  0  0  0
   18.7737   18.4832   22.3178 C   0  0  0  0  0  0  0  0  0  0  0  0
   18.8137   19.1545   21.4499 H   0  0  0  0  0  0  0  0  0  0  0  0
   18.4335   19.0841   23.1725 H   0  0  0  0  0  0  0  0  0  0  0  0
   20.1785   17.9073   22.6112 C   0  0  0  0  0  0  0  0  0  0  0  0
   20.5410   17.3504   21.7364 H   0  0  0  0  0  0  0  0  0  0  0  0
   20.1021   17.1811   23.4321 H   0  0  0  0  0  0  0  0  0  0  0  0
   21.2163   18.9847   23.0056 C   0  0  0  0  0  0  0  0  0  0  0  0
   20.8559   19.5392   23.8830 H   0  0  0  0  0  0  0  0  0  0  0  0
   22.1413   18.4797   23.3160 H   0  0  0  0  0  0  0  0  0  0  0  0
   21.5437   19.9728   21.8634 C   0  0  0  0  0  0  0  0  0  0  0  0
   20.6479   20.5456   21.5900 H   0  0  0  0  0  0  0  0  0  0  0  0
   21.8538   19.4155   20.9687 H   0  0  0  0  0  0  0  0  0  0  0  0
   22.6619   20.9543   22.2682 C   0  0  0  0  0  0  0  0  0  0  0  0
   23.5878   20.4169   22.5119 H   0  0  0  0  0  0  0  0  0  0  0  0
   22.3670   21.5450   23.1454 H   0  0  0  0  0  0  0  0  0  0  0  0
   22.8805   21.6509   21.4484 H   0  0  0  0  0  0  0  0  0  0  0  0
  1  2  1  0  0  0  0
  1  3  2  0  0  0  0
  1  4  1  0  0  0  0
  4  5  1  0  0  0  0
  4  6  1  0  0  0  0
  4  7  1  0  0  0  0
  7  8  1  0  0  0  0
  7  9  1  0  0  0  0
  7 10  1  0  0  0  0
 10 11  1  0  0  0  0
 10 12  1  0  0  0  0
 10 13  1  0  0  0  0
 13 14  1  0  0  0  0
 13 15  1  0  0  0  0
 13 16  1  0  0  0  0
 16 17  1  0  0  0  0
 16 18  1  0  0  0  0
 16 19  1  0  0  0  0
 19 20  1  0  0  0  0
 19 21  1  0  0  0  0
 19 22  1  0  0  0  0
M  END
> <VConfSearch Rank>
247

> <Conf_Id>
50

> <Delta U+W>
-0.486

> <U+W>
-53.646

> <U>
7.026

> <W>
-60.672

> <W(PB)>
-62.964

> <W(SA)>
2.292

> <Valence>
7.637

> <Coulomb>
-1.488

> <VdW>
0.877

> <VdW6>
-7.165

> <VdW12>
8.043

> <Bond>
0.134

> <Angle>
2.513

> <Pdih>
4.990

> <Idih>
0.001

> <Tether>
0.000

$$$$
VeraChem MOL file


 22 21  0  0  0  0  0  0  0  0999 V2000     
   20.2638   22.4224   20.8111 C   0  0  0  0  0  0  0  0  0  0  0  0
   20.0519   23.3693   21.5426 O   0  5  0  0  0  0  0  0  0  0  0  0
   19.9197   22.3814   19.6465 O   0  0  0  0  0  0  0  0  0  0  0  0
   20.9830   21.2104   21.3925 C   0  0  0  0  0  0  0  0  0  0  0  0
   21.6866   21.5654   22.1550 H   0  0  0  0  0  0  0  0  0  0  0  0
   21.5761   20.7502   20.5930 H   0  0  0  0  0  0  0  0  0  0  0  0
   20.0118   20.1701   22.0031 C   0  0  0  0  0  0  0  0  0  0  0  0
   19.4193   20.6484   22.7953 H   0  0  0  0  0  0  0  0  0  0  0  0
   19.3063   19.8455   21.2270 H   0  0  0  0  0  0  0  0  0  0  0  0
   20.7670   18.9506   22.5806 C   0  0  0  0  0  0  0  0  0  0  0  0
   21.5200   19.3042   23.2981 H   0  0  0  0  0  0  0  0  0  0  0  0
   21.3176   18.4412   21.7779 H   0  0  0  0  0  0  0  0  0  0  0  0
   19.8441   17.9377   23.2988 C   0  0  0  0  0  0  0  0  0  0  0  0
   20.4721   17.1770   23.7824 H   0  0  0  0  0  0  0  0  0  0  0  0
   19.2963   18.4458   24.1042 H   0  0  0  0  0  0  0  0  0  0  0  0
   18.8451   17.2349   22.3520 C   0  0  0  0  0  0  0  0  0  0  0  0
   19.3889   16.7712   21.5174 H   0  0  0  0  0  0  0  0  0  0  0  0
   18.1552   17.9696   21.9166 H   0  0  0  0  0  0  0  0  0  0  0  0
   18.0276   16.1570   23.0921 C   0  0  0  0  0  0  0  0  0  0  0  0
   17.4517   16.5983   23.9161 H   0  0  0  0  0  0  0  0  0  0  0  0
   18.6844   15.3823   23.5090 H   0  0  0  0  0  0  0  0  0  0  0  0
   17.3211   15.6697   22.4077 H   0  0  0  0  0  0  0  0  0  0  0  0
  1  2  1  0  0  0  0
  1  3  2  0  0  0  0
  1  4  1  0  0  0  0
  4  5  1  0  0  0  0
  4  6  1  0  0  0  0
  4  7  1  0  0  0  0
  7  8  1  0  0  0  0
  7  9  1  0  0  0  0
  7 10  1  0  0  0  0
 10 11  1  0  0  0  0
 10 12  1  0  0  0  0
 10 13  1  0  0  0  0
 13 14  1  0  0  0  0
 13 15  1  0  0  0  0
 13 16  1  0  0  0  0
 16 17  1  0  0  0  0
 16 18  1  0  0  0  0
 16 19  1  0  0  0  0
 19 20  1  0  0  0  0
 19 21  1  0  0  0  0
 19 22  1  0  0  0  0
M  END
> <VConfSearch Rank>
248

> <Conf_Id>
51

> <Delta U+W>
-0.517

> <U+W>
-53.677

> <U>
7.026

> <W>
-60.703

> <W(PB)>
-63.007

> <W(SA)>
2.304

> <Valence>
7.638

> <Coulomb>
-1.488

> <VdW>
0.877

> <VdW6>
-7.165

> <VdW12>
8.042

> <Bond>
0.134

> <Angle>
2.513

> <Pdih>
4.990

> <Idih>
0.001

> <Tether>
0.000

$$$$
VeraChem MOL file


 22 21  0  0  0  0  0  0  0  0999 V2000     
   22.7680   17.3306   23.7225 C   0  0  0  0  0  0  0  0  0  0  0  0
   23.5671   16.9598   22.8853 O   0  5  0  0  0  0  0  0  0  0  0  0
   23.0247   18.1539   24.5787 O   0  0  0  0  0  0  0  0  0  0  0  0
   21.3724   16.7133   23.7075 C   0  0  0  0  0  0  0  0  0  0  0  0
   20.9070   16.8760   24.6872 H   0  0  0  0  0  0  0  0  0  0  0  0
   21.4942   15.6301   23.5900 H   0  0  0  0  0  0  0  0  0  0  0  0
   20.4545   17.2565   22.5817 C   0  0  0  0  0  0  0  0  0  0  0  0
   20.9463   17.1120   21.6097 H   0  0  0  0  0  0  0  0  0  0  0  0
   19.5296   16.6644   22.5592 H   0  0  0  0  0  0  0  0  0  0  0  0
   20.0997   18.7483   22.7721 C   0  0  0  0  0  0  0  0  0  0  0  0
   21.0194   19.3495   22.7785 H   0  0  0  0  0  0  0  0  0  0  0  0
   19.6204   18.8895   23.7506 H   0  0  0  0  0  0  0  0  0  0  0  0
   19.1606   19.2593   21.6584 C   0  0  0  0  0  0  0  0  0  0  0  0
   19.6407   19.1178   20.6804 H   0  0  0  0  0  0  0  0  0  0  0  0
   18.2389   18.6615   21.6519 H   0  0  0  0  0  0  0  0  0  0  0  0
   18.8065   20.7493   21.8475 C   0  0  0  0  0  0  0  0  0  0  0  0
   19.7262   21.3507   21.8528 H   0  0  0  0  0  0  0  0  0  0  0  0
   18.3246   20.8944   22.8243 H   0  0  0  0  0  0  0  0  0  0  0  0
   17.8692   21.2562   20.7332 C   0  0  0  0  0  0  0  0  0  0  0  0
   18.3395   21.1519   19.7466 H   0  0  0  0  0  0  0  0  0  0  0  0
   17.6280   22.3166   20.8832 H   0  0  0  0  0  0  0  0  0  0  0  0
   16.9273   20.6921   20.7254 H   0  0  0  0  0  0  0  0  0  0  0  0
  1  2  1  0  0  0  0
  1  3  2  0  0  0  0
  1  4  1  0  0  0  0
  4  5  1  0  0  0  0
  4  6  1  0  0  0  0
  4  7  1  0  0  0  0
  7  8  1  0  0  0  0
  7  9  1  0  0  0  0
  7 10  1  0  0  0  0
 10 11  1  0  0  0  0
 10 12  1  0  0  0  0
 10 13  1  0  0  0  0
 13 14  1  0  0  0  0
 13 15  1  0  0  0  0
 13 16  1  0  0  0  0
 16 17  1  0  0  0  0
 16 18  1  0  0  0  0
 16 19  1  0  0  0  0
 19 20  1  0  0  0  0
 19 21  1  0  0  0  0
 19 22  1  0  0  0  0
M  END
> <VConfSearch Rank>
249

> <Conf_Id>
43

> <Delta U+W>
-0.129

> <U+W>
-53.289

> <U>
7.937

> <W>
-61.225

> <W(PB)>
-63.523

> <W(SA)>
2.297

> <Valence>
7.358

> <Coulomb>
-0.022

> <VdW>
0.601

> <VdW6>
-7.363

> <VdW12>
7.964

> <Bond>
0.121

> <Angle>
2.425

> <Pdih>
4.811

> <Idih>
0.000

> <Tether>
0.000

$$$$
VeraChem MOL file


 22 21  0  0  0  0  0  0  0  0999 V2000     
   21.3247   17.0278   24.6273 C   0  0  0  0  0  0  0  0  0  0  0  0
   20.7042   16.0160   24.8881 O   0  5  0  0  0  0  0  0  0  0  0  0
   21.6113   17.8724   25.4527 O   0  0  0  0  0  0  0  0  0  0  0  0
   21.7840   17.2384   23.1872 C   0  0  0  0  0  0  0  0  0  0  0  0
   22.2168   16.2930   22.8395 H   0  0  0  0  0  0  0  0  0  0  0  0
   22.5932   17.9788   23.1824 H   0  0  0  0  0  0  0  0  0  0  0  0
   20.6520   17.6760   22.2217 C   0  0  0  0  0  0  0  0  0  0  0  0
   21.0381   17.6689   21.1934 H   0  0  0  0  0  0  0  0  0  0  0  0
   19.8372   16.9396   22.2587 H   0  0  0  0  0  0  0  0  0  0  0  0
   20.1018   19.0822   22.5495 C   0  0  0  0  0  0  0  0  0  0  0  0
   20.9223   19.8124   22.5241 H   0  0  0  0  0  0  0  0  0  0  0  0
   19.6979   19.0926   23.5714 H   0  0  0  0  0  0  0  0  0  0  0  0
   18.9988   19.5101   21.5577 C   0  0  0  0  0  0  0  0  0  0  0  0
   19.4011   19.5033   20.5353 H   0  0  0  0  0  0  0  0  0  0  0  0
   18.1787   18.7795   21.5837 H   0  0  0  0  0  0  0  0  0  0  0  0
   18.4484   20.9140   21.8849 C   0  0  0  0  0  0  0  0  0  0  0  0
   19.2658   21.6479   21.8582 H   0  0  0  0  0  0  0  0  0  0  0  0
   18.0434   20.9242   22.9064 H   0  0  0  0  0  0  0  0  0  0  0  0
   17.3468   21.3377   20.8928 C   0  0  0  0  0  0  0  0  0  0  0  0
   17.7332   21.3665   19.8656 H   0  0  0  0  0  0  0  0  0  0  0  0
   16.9670   22.3375   21.1402 H   0  0  0  0  0  0  0  0  0  0  0  0
   16.5017   20.6374   20.9217 H   0  0  0  0  0  0  0  0  0  0  0  0
  1  2  1  0  0  0  0
  1  3  2  0  0  0  0
  1  4  1  0  0  0  0
  4  5  1  0  0  0  0
  4  6  1  0  0  0  0
  4  7  1  0  0  0  0
  7  8  1  0  0  0  0
  7  9  1  0  0  0  0
  7 10  1  0  0  0  0
 10 11  1  0  0  0  0
 10 12  1  0  0  0  0
 10 13  1  0  0  0  0
 13 14  1  0  0  0  0
 13 15  1  0  0  0  0
 13 16  1  0  0  0  0
 16 17  1  0  0  0  0
 16 18  1  0  0  0  0
 16 19  1  0  0  0  0
 19 20  1  0  0  0  0
 19 21  1  0  0  0  0
 19 22  1  0  0  0  0
M  END
> <VConfSearch Rank>
250

> <Conf_Id>
44

> <Delta U+W>
-0.155

> <U+W>
-53.314

> <U>
7.937

> <W>
-61.252

> <W(PB)>
-63.556

> <W(SA)>
2.304

> <Valence>
7.358

> <Coulomb>
-0.021

> <VdW>
0.600

> <VdW6>
-7.363

> <VdW12>
7.964

> <Bond>
0.121

> <Angle>
2.425

> <Pdih>
4.811

> <Idih>
0.001

> <Tether>
0.000

$$$$
VeraChem MOL file


 22 21  0  0  0  0  0  0  0  0999 V2000     
   21.2686   20.4175   19.4348 C   0  0  0  0  0  0  0  0  0  0  0  0
   22.0954   19.6637   18.9604 O   0  5  0  0  0  0  0  0  0  0  0  0
   21.4848   21.5899   19.6706 O   0  0  0  0  0  0  0  0  0  0  0  0
   19.8777   19.8642   19.7322 C   0  0  0  0  0  0  0  0  0  0  0  0
   19.5647   19.2799   18.8589 H   0  0  0  0  0  0  0  0  0  0  0  0
   19.1776   20.7039   19.8196 H   0  0  0  0  0  0  0  0  0  0  0  0
   19.8084   18.9752   21.0013 C   0  0  0  0  0  0  0  0  0  0  0  0
   18.8179   18.5047   21.0420 H   0  0  0  0  0  0  0  0  0  0  0  0
   20.5430   18.1625   20.9166 H   0  0  0  0  0  0  0  0  0  0  0  0
   20.0592   19.7761   22.3016 C   0  0  0  0  0  0  0  0  0  0  0  0
   19.2983   20.5615   22.4059 H   0  0  0  0  0  0  0  0  0  0  0  0
   21.0267   20.2912   22.2267 H   0  0  0  0  0  0  0  0  0  0  0  0
   20.0746   18.8965   23.5744 C   0  0  0  0  0  0  0  0  0  0  0  0
   20.8355   18.1110   23.4695 H   0  0  0  0  0  0  0  0  0  0  0  0
   20.3869   19.5197   24.4235 H   0  0  0  0  0  0  0  0  0  0  0  0
   18.7060   18.2565   23.8997 C   0  0  0  0  0  0  0  0  0  0  0  0
   18.4110   17.5655   23.0993 H   0  0  0  0  0  0  0  0  0  0  0  0
   17.9345   19.0372   23.9506 H   0  0  0  0  0  0  0  0  0  0  0  0
   18.7449   17.4876   25.2358 C   0  0  0  0  0  0  0  0  0  0  0  0
   19.4903   16.6821   25.2033 H   0  0  0  0  0  0  0  0  0  0  0  0
   17.7676   17.0365   25.4510 H   0  0  0  0  0  0  0  0  0  0  0  0
   18.9995   18.1572   26.0677 H   0  0  0  0  0  0  0  0  0  0  0  0
  1  2  1  0  0  0  0
  1  3  2  0  0  0  0
  1  4  1  0  0  0  0
  4  5  1  0  0  0  0
  4  6  1  0  0  0  0
  4  7  1  0  0  0  0
  7  8  1  0  0  0  0
  7  9  1  0  0  0  0
  7 10  1  0  0  0  0
 10 11  1  0  0  0  0
 10 12  1  0  0  0  0
 10 13  1  0  0  0  0
 13 14  1  0  0  0  0
 13 15  1  0  0  0  0
 13 16  1  0  0  0  0
 16 17  1  0  0  0  0
 16 18  1  0  0  0  0
 16 19  1  0  0  0  0
 19 20  1  0  0  0  0
 19 21  1  0  0  0  0
 19 22  1  0  0  0  0
M  END
> <VConfSearch Rank>
251

> <Conf_Id>
53

> <Delta U+W>
0.723

> <U+W>
-52.436

> <U>
8.587

> <W>
-61.022

> <W(PB)>
-63.285

> <W(SA)>
2.263

> <Valence>
7.933

> <Coulomb>
-0.124

> <VdW>
0.778

> <VdW6>
-7.981

> <VdW12>
8.759

> <Bond>
0.160

> <Angle>
2.698

> <Pdih>
5.074

> <Idih>
0.001

> <Tether>
0.000

$$$$
VeraChem MOL file


 22 21  0  0  0  0  0  0  0  0999 V2000     
   16.6859   19.5899   23.5164 C   0  0  0  0  0  0  0  0  0  0  0  0
   16.4469   18.8137   24.4202 O   0  5  0  0  0  0  0  0  0  0  0  0
   15.9315   20.4802   23.1772 O   0  0  0  0  0  0  0  0  0  0  0  0
   18.0148   19.4536   22.7819 C   0  0  0  0  0  0  0  0  0  0  0  0
   17.8680   19.7850   21.7470 H   0  0  0  0  0  0  0  0  0  0  0  0
   18.2706   18.3885   22.7551 H   0  0  0  0  0  0  0  0  0  0  0  0
   19.1548   20.2646   23.4482 C   0  0  0  0  0  0  0  0  0  0  0  0
   18.8155   21.3006   23.5862 H   0  0  0  0  0  0  0  0  0  0  0  0
   19.3411   19.8657   24.4549 H   0  0  0  0  0  0  0  0  0  0  0  0
   20.4790   20.2844   22.6441 C   0  0  0  0  0  0  0  0  0  0  0  0
   21.1869   20.9240   23.1888 H   0  0  0  0  0  0  0  0  0  0  0  0
   20.3232   20.7724   21.6722 H   0  0  0  0  0  0  0  0  0  0  0  0
   21.1366   18.8947   22.4486 C   0  0  0  0  0  0  0  0  0  0  0  0
   22.2272   19.0151   22.5028 H   0  0  0  0  0  0  0  0  0  0  0  0
   20.8615   18.2271   23.2765 H   0  0  0  0  0  0  0  0  0  0  0  0
   20.7928   18.2394   21.0910 C   0  0  0  0  0  0  0  0  0  0  0  0
   21.1257   18.8928   20.2728 H   0  0  0  0  0  0  0  0  0  0  0  0
   19.7077   18.1263   20.9802 H   0  0  0  0  0  0  0  0  0  0  0  0
   21.4631   16.8586   20.9439 C   0  0  0  0  0  0  0  0  0  0  0  0
   22.5557   16.9430   21.0096 H   0  0  0  0  0  0  0  0  0  0  0  0
   21.2154   16.4098   19.9732 H   0  0  0  0  0  0  0  0  0  0  0  0
   21.1241   16.1724   21.7310 H   0  0  0  0  0  0  0  0  0  0  0  0
  1  2  1  0  0  0  0
  1  3  2  0  0  0  0
  1  4  1  0  0  0  0
  4  5  1  0  0  0  0
  4  6  1  0  0  0  0
  4  7  1  0  0  0  0
  7  8  1  0  0  0  0
  7  9  1  0  0  0  0
  7 10  1  0  0  0  0
 10 11  1  0  0  0  0
 10 12  1  0  0  0  0
 10 13  1  0  0  0  0
 13 14  1  0  0  0  0
 13 15  1  0  0  0  0
 13 16  1  0  0  0  0
 16 17  1  0  0  0  0
 16 18  1  0  0  0  0
 16 19  1  0  0  0  0
 19 20  1  0  0  0  0
 19 21  1  0  0  0  0
 19 22  1  0  0  0  0
M  END
> <VConfSearch Rank>
252

> <Conf_Id>
5

> <Delta U+W>
2.167

> <U+W>
-50.993

> <U>
10.045

> <W>
-61.037

> <W(PB)>
-63.303

> <W(SA)>
2.266

> <Valence>
10.100

> <Coulomb>
-0.883

> <VdW>
0.828

> <VdW6>
-8.177

> <VdW12>
9.005

> <Bond>
0.182

> <Angle>
2.988

> <Pdih>
6.930

> <Idih>
0.001

> <Tether>
0.000

$$$$
VeraChem MOL file


 22 21  0  0  0  0  0  0  0  0999 V2000     
   20.6388   16.4668   20.1903 C   0  0  0  0  0  0  0  0  0  0  0  0
   19.6185   16.0703   19.6627 O   0  5  0  0  0  0  0  0  0  0  0  0
   21.7322   15.9739   19.9952 O   0  0  0  0  0  0  0  0  0  0  0  0
   20.5386   17.6320   21.1682 C   0  0  0  0  0  0  0  0  0  0  0  0
   19.7377   18.2918   20.8161 H   0  0  0  0  0  0  0  0  0  0  0  0
   21.4771   18.1971   21.1227 H   0  0  0  0  0  0  0  0  0  0  0  0
   20.2585   17.1734   22.6216 C   0  0  0  0  0  0  0  0  0  0  0  0
   19.2777   16.6798   22.6620 H   0  0  0  0  0  0  0  0  0  0  0  0
   20.9985   16.4096   22.8984 H   0  0  0  0  0  0  0  0  0  0  0  0
   20.3109   18.3113   23.6719 C   0  0  0  0  0  0  0  0  0  0  0  0
   21.3194   18.7457   23.7078 H   0  0  0  0  0  0  0  0  0  0  0  0
   20.1463   17.8579   24.6589 H   0  0  0  0  0  0  0  0  0  0  0  0
   19.2526   19.4253   23.4702 C   0  0  0  0  0  0  0  0  0  0  0  0
   18.3676   19.0179   22.9625 H   0  0  0  0  0  0  0  0  0  0  0  0
   18.9097   19.7625   24.4581 H   0  0  0  0  0  0  0  0  0  0  0  0
   19.7946   20.6546   22.7048 C   0  0  0  0  0  0  0  0  0  0  0  0
   20.1765   20.3592   21.7203 H   0  0  0  0  0  0  0  0  0  0  0  0
   20.6429   21.0850   23.2546 H   0  0  0  0  0  0  0  0  0  0  0  0
   18.7069   21.7321   22.5232 C   0  0  0  0  0  0  0  0  0  0  0  0
   17.8582   21.3396   21.9478 H   0  0  0  0  0  0  0  0  0  0  0  0
   19.1086   22.6005   21.9850 H   0  0  0  0  0  0  0  0  0  0  0  0
   18.3314   22.0795   23.4947 H   0  0  0  0  0  0  0  0  0  0  0  0
  1  2  1  0  0  0  0
  1  3  2  0  0  0  0
  1  4  1  0  0  0  0
  4  5  1  0  0  0  0
  4  6  1  0  0  0  0
  4  7  1  0  0  0  0
  7  8  1  0  0  0  0
  7  9  1  0  0  0  0
  7 10  1  0  0  0  0
 10 11  1  0  0  0  0
 10 12  1  0  0  0  0
 10 13  1  0  0  0  0
 13 14  1  0  0  0  0
 13 15  1  0  0  0  0
 13 16  1  0  0  0  0
 16 17  1  0  0  0  0
 16 18  1  0  0  0  0
 16 19  1  0  0  0  0
 19 20  1  0  0  0  0
 19 21  1  0  0  0  0
 19 22  1  0  0  0  0
M  END
> <VConfSearch Rank>
253

> <Conf_Id>
6

> <Delta U+W>
2.118

> <U+W>
-51.042

> <U>
10.045

> <W>
-61.086

> <W(PB)>
-63.356

> <W(SA)>
2.270

> <Valence>
10.100

> <Coulomb>
-0.883

> <VdW>
0.828

> <VdW6>
-8.177

> <VdW12>
9.004

> <Bond>
0.182

> <Angle>
2.988

> <Pdih>
6.930

> <Idih>
0.001

> <Tether>
0.000

$$$$
VeraChem MOL file


 22 21  0  0  0  0  0  0  0  0999 V2000     
   18.4721   19.9109   24.8610 C   0  0  0  0  0  0  0  0  0  0  0  0
   18.9857   19.3181   25.7896 O   0  5  0  0  0  0  0  0  0  0  0  0
   17.3249   19.7300   24.5027 O   0  0  0  0  0  0  0  0  0  0  0  0
   19.2863   20.9909   24.1509 C   0  0  0  0  0  0  0  0  0  0  0  0
   19.4931   21.7635   24.9004 H   0  0  0  0  0  0  0  0  0  0  0  0
   18.6617   21.4599   23.3810 H   0  0  0  0  0  0  0  0  0  0  0  0
   20.6308   20.5112   23.5350 C   0  0  0  0  0  0  0  0  0  0  0  0
   21.2721   21.3916   23.3941 H   0  0  0  0  0  0  0  0  0  0  0  0
   21.1595   19.8634   24.2480 H   0  0  0  0  0  0  0  0  0  0  0  0
   20.5005   19.7988   22.1659 C   0  0  0  0  0  0  0  0  0  0  0  0
   21.5109   19.6482   21.7615 H   0  0  0  0  0  0  0  0  0  0  0  0
   19.9787   20.4550   21.4559 H   0  0  0  0  0  0  0  0  0  0  0  0
   19.7838   18.4312   22.2325 C   0  0  0  0  0  0  0  0  0  0  0  0
   20.2423   17.8121   23.0158 H   0  0  0  0  0  0  0  0  0  0  0  0
   18.7320   18.5744   22.5105 H   0  0  0  0  0  0  0  0  0  0  0  0
   19.8475   17.6873   20.8818 C   0  0  0  0  0  0  0  0  0  0  0  0
   20.8960   17.5286   20.5943 H   0  0  0  0  0  0  0  0  0  0  0  0
   19.3908   18.3062   20.0970 H   0  0  0  0  0  0  0  0  0  0  0  0
   19.1239   16.3274   20.9479 C   0  0  0  0  0  0  0  0  0  0  0  0
   19.5809   15.6761   21.7045 H   0  0  0  0  0  0  0  0  0  0  0  0
   19.1778   15.8126   19.9799 H   0  0  0  0  0  0  0  0  0  0  0  0
   18.0643   16.4588   21.2039 H   0  0  0  0  0  0  0  0  0  0  0  0
  1  2  1  0  0  0  0
  1  3  2  0  0  0  0
  1  4  1  0  0  0  0
  4  5  1  0  0  0  0
  4  6  1  0  0  0  0
  4  7  1  0  0  0  0
  7  8  1  0  0  0  0
  7  9  1  0  0  0  0
  7 10  1  0  0  0  0
 10 11  1  0  0  0  0
 10 12  1  0  0  0  0
 10 13  1  0  0  0  0
 13 14  1  0  0  0  0
 13 15  1  0  0  0  0
 13 16  1  0  0  0  0
 16 17  1  0  0  0  0
 16 18  1  0  0  0  0
 16 19  1  0  0  0  0
 19 20  1  0  0  0  0
 19 21  1  0  0  0  0
 19 22  1  0  0  0  0
M  END
> <VConfSearch Rank>
254

> <Conf_Id>
8

> <Delta U+W>
1.886

> <U+W>
-51.274

> <U>
11.237

> <W>
-62.510

> <W(PB)>
-64.777

> <W(SA)>
2.267

> <Valence>
9.029

> <Coulomb>
1.667

> <VdW>
0.540

> <VdW6>
-8.825

> <VdW12>
9.365

> <Bond>
0.186

> <Angle>
3.195

> <Pdih>
5.642

> <Idih>
0.007

> <Tether>
0.000

$$$$
VeraChem MOL file


 22 21  0  0  0  0  0  0  0  0999 V2000     
   21.7609   19.4137   20.2153 C   0  0  0  0  0  0  0  0  0  0  0  0
   20.8585   19.6663   19.4416 O   0  5  0  0  0  0  0  0  0  0  0  0
   22.6870   18.6729   19.9488 O   0  0  0  0  0  0  0  0  0  0  0  0
   21.7489   20.0855   21.5856 C   0  0  0  0  0  0  0  0  0  0  0  0
   21.0309   20.9130   21.5650 H   0  0  0  0  0  0  0  0  0  0  0  0
   22.7365   20.5371   21.7351 H   0  0  0  0  0  0  0  0  0  0  0  0
   21.4429   19.1205   22.7639 C   0  0  0  0  0  0  0  0  0  0  0  0
   22.2272   18.3519   22.8003 H   0  0  0  0  0  0  0  0  0  0  0  0
   21.5112   19.6740   23.7101 H   0  0  0  0  0  0  0  0  0  0  0  0
   20.0643   18.4194   22.6820 C   0  0  0  0  0  0  0  0  0  0  0  0
   20.0016   17.6991   23.5074 H   0  0  0  0  0  0  0  0  0  0  0  0
   20.0002   17.8341   21.7545 H   0  0  0  0  0  0  0  0  0  0  0  0
   18.8685   19.4000   22.7607 C   0  0  0  0  0  0  0  0  0  0  0  0
   18.9396   20.0010   23.6774 H   0  0  0  0  0  0  0  0  0  0  0  0
   18.9206   20.1031   21.9194 H   0  0  0  0  0  0  0  0  0  0  0  0
   17.4925   18.6959   22.7082 C   0  0  0  0  0  0  0  0  0  0  0  0
   17.4249   18.0817   21.7997 H   0  0  0  0  0  0  0  0  0  0  0  0
   16.7093   19.4619   22.6233 H   0  0  0  0  0  0  0  0  0  0  0  0
   17.1997   17.8250   23.9495 C   0  0  0  0  0  0  0  0  0  0  0  0
   17.8843   16.9700   24.0111 H   0  0  0  0  0  0  0  0  0  0  0  0
   16.1772   17.4282   23.9066 H   0  0  0  0  0  0  0  0  0  0  0  0
   17.2960   18.4114   24.8725 H   0  0  0  0  0  0  0  0  0  0  0  0
  1  2  1  0  0  0  0
  1  3  2  0  0  0  0
  1  4  1  0  0  0  0
  4  5  1  0  0  0  0
  4  6  1  0  0  0  0
  4  7  1  0  0  0  0
  7  8  1  0  0  0  0
  7  9  1  0  0  0  0
  7 10  1  0  0  0  0
 10 11  1  0  0  0  0
 10 12  1  0  0  0  0
 10 13  1  0  0  0  0
 13 14  1  0  0  0  0
 13 15  1  0  0  0  0
 13 16  1  0  0  0  0
 16 17  1  0  0  0  0
 16 18  1  0  0  0  0
 16 19  1  0  0  0  0
 19 20  1  0  0  0  0
 19 21  1  0  0  0  0
 19 22  1  0  0  0  0
M  END
> <VConfSearch Rank>
255

> <Conf_Id>
93

> <Delta U+W>
1.836

> <U+W>
-51.323

> <U>
10.427

> <W>
-61.751

> <W(PB)>
-63.980

> <W(SA)>
2.230

> <Valence>
8.446

> <Coulomb>
1.306

> <VdW>
0.676

> <VdW6>
-8.928

> <VdW12>
9.604

> <Bond>
0.209

> <Angle>
3.066

> <Pdih>
5.170

> <Idih>
0.001

> <Tether>
0.000

$$$$
VeraChem MOL file


 22 21  0  0  0  0  0  0  0  0999 V2000     
   16.8692   17.9633   22.8086 C   0  0  0  0  0  0  0  0  0  0  0  0
   15.9392   18.5368   23.3410 O   0  5  0  0  0  0  0  0  0  0  0  0
   17.3521   16.9309   23.2304 O   0  0  0  0  0  0  0  0  0  0  0  0
   17.4402   18.5577   21.5242 C   0  0  0  0  0  0  0  0  0  0  0  0
   16.5960   18.7534   20.8529 H   0  0  0  0  0  0  0  0  0  0  0  0
   18.0579   17.7993   21.0302 H   0  0  0  0  0  0  0  0  0  0  0  0
   18.2435   19.8707   21.7336 C   0  0  0  0  0  0  0  0  0  0  0  0
   18.5660   20.2557   20.7568 H   0  0  0  0  0  0  0  0  0  0  0  0
   17.5706   20.6297   22.1561 H   0  0  0  0  0  0  0  0  0  0  0  0
   19.4776   19.7311   22.6590 C   0  0  0  0  0  0  0  0  0  0  0  0
   19.1601   19.3802   23.6504 H   0  0  0  0  0  0  0  0  0  0  0  0
   19.9043   20.7312   22.8069 H   0  0  0  0  0  0  0  0  0  0  0  0
   20.5655   18.7837   22.0968 C   0  0  0  0  0  0  0  0  0  0  0  0
   20.1422   17.7784   21.9740 H   0  0  0  0  0  0  0  0  0  0  0  0
   20.8716   19.1200   21.0969 H   0  0  0  0  0  0  0  0  0  0  0  0
   21.8099   18.6681   23.0080 C   0  0  0  0  0  0  0  0  0  0  0  0
   22.4610   17.8756   22.6140 H   0  0  0  0  0  0  0  0  0  0  0  0
   21.5044   18.3468   24.0134 H   0  0  0  0  0  0  0  0  0  0  0  0
   22.6253   19.9761   23.1038 C   0  0  0  0  0  0  0  0  0  0  0  0
   22.0561   20.7688   23.6048 H   0  0  0  0  0  0  0  0  0  0  0  0
   22.9117   20.3345   22.1065 H   0  0  0  0  0  0  0  0  0  0  0  0
   23.5446   19.8131   23.6810 H   0  0  0  0  0  0  0  0  0  0  0  0
  1  2  1  0  0  0  0
  1  3  2  0  0  0  0
  1  4  1  0  0  0  0
  4  5  1  0  0  0  0
  4  6  1  0  0  0  0
  4  7  1  0  0  0  0
  7  8  1  0  0  0  0
  7  9  1  0  0  0  0
  7 10  1  0  0  0  0
 10 11  1  0  0  0  0
 10 12  1  0  0  0  0
 10 13  1  0  0  0  0
 13 14  1  0  0  0  0
 13 15  1  0  0  0  0
 13 16  1  0  0  0  0
 16 17  1  0  0  0  0
 16 18  1  0  0  0  0
 16 19  1  0  0  0  0
 19 20  1  0  0  0  0
 19 21  1  0  0  0  0
 19 22  1  0  0  0  0
M  END
> <VConfSearch Rank>
256

> <Conf_Id>
70

> <Delta U+W>
1.803

> <U+W>
-51.356

> <U>
10.428

> <W>
-61.784

> <W(PB)>
-64.014

> <W(SA)>
2.230

> <Valence>
8.445

> <Coulomb>
1.306

> <VdW>
0.676

> <VdW6>
-8.929

> <VdW12>
9.605

> <Bond>
0.209

> <Angle>
3.066

> <Pdih>
5.170

> <Idih>
0.001

> <Tether>
0.000

$$$$
VeraChem MOL file


 22 21  0  0  0  0  0  0  0  0999 V2000     
   18.6441   20.0420   25.3770 C   0  0  0  0  0  0  0  0  0  0  0  0
   17.4614   19.7623   25.3806 O   0  5  0  0  0  0  0  0  0  0  0  0
   19.0703   21.1637   25.5696 O   0  0  0  0  0  0  0  0  0  0  0  0
   19.6481   18.9177   25.1384 C   0  0  0  0  0  0  0  0  0  0  0  0
   19.3380   18.0645   25.7532 H   0  0  0  0  0  0  0  0  0  0  0  0
   20.6281   19.2383   25.5119 H   0  0  0  0  0  0  0  0  0  0  0  0
   19.7574   18.4754   23.6560 C   0  0  0  0  0  0  0  0  0  0  0  0
   20.3964   17.5842   23.5958 H   0  0  0  0  0  0  0  0  0  0  0  0
   18.7624   18.1779   23.2995 H   0  0  0  0  0  0  0  0  0  0  0  0
   20.3412   19.5849   22.7489 C   0  0  0  0  0  0  0  0  0  0  0  0
   21.2947   19.9279   23.1733 H   0  0  0  0  0  0  0  0  0  0  0  0
   19.6722   20.4565   22.7476 H   0  0  0  0  0  0  0  0  0  0  0  0
   20.5892   19.1234   21.2932 C   0  0  0  0  0  0  0  0  0  0  0  0
   21.1138   19.9268   20.7582 H   0  0  0  0  0  0  0  0  0  0  0  0
   21.2642   18.2567   21.2913 H   0  0  0  0  0  0  0  0  0  0  0  0
   19.2921   18.7755   20.5284 C   0  0  0  0  0  0  0  0  0  0  0  0
   18.5954   19.6239   20.5756 H   0  0  0  0  0  0  0  0  0  0  0  0
   18.7904   17.9221   21.0030 H   0  0  0  0  0  0  0  0  0  0  0  0
   19.5805   18.4309   19.0534 C   0  0  0  0  0  0  0  0  0  0  0  0
   20.0488   19.2784   18.5358 H   0  0  0  0  0  0  0  0  0  0  0  0
   18.6506   18.1833   18.5251 H   0  0  0  0  0  0  0  0  0  0  0  0
   20.2543   17.5674   18.9767 H   0  0  0  0  0  0  0  0  0  0  0  0
  1  2  1  0  0  0  0
  1  3  2  0  0  0  0
  1  4  1  0  0  0  0
  4  5  1  0  0  0  0
  4  6  1  0  0  0  0
  4  7  1  0  0  0  0
  7  8  1  0  0  0  0
  7  9  1  0  0  0  0
  7 10  1  0  0  0  0
 10 11  1  0  0  0  0
 10 12  1  0  0  0  0
 10 13  1  0  0  0  0
 13 14  1  0  0  0  0
 13 15  1  0  0  0  0
 13 16  1  0  0  0  0
 16 17  1  0  0  0  0
 16 18  1  0  0  0  0
 16 19  1  0  0  0  0
 19 20  1  0  0  0  0
 19 21  1  0  0  0  0
 19 22  1  0  0  0  0
M  END
> <VConfSearch Rank>
257

> <Conf_Id>
85

> <Delta U+W>
0.707

> <U+W>
-52.452

> <U>
8.925

> <W>
-61.378

> <W(PB)>
-63.661

> <W(SA)>
2.283

> <Valence>
7.881

> <Coulomb>
0.349

> <VdW>
0.695

> <VdW6>
-8.049

> <VdW12>
8.743

> <Bond>
0.156

> <Angle>
2.660

> <Pdih>
5.064

> <Idih>
0.001

> <Tether>
0.000

$$$$
VeraChem MOL file


 22 21  0  0  0  0  0  0  0  0999 V2000     
   21.4359   16.0763   21.4828 C   0  0  0  0  0  0  0  0  0  0  0  0
   22.6085   16.2641   21.2243 O   0  5  0  0  0  0  0  0  0  0  0  0
   21.0407   15.1730   22.1932 O   0  0  0  0  0  0  0  0  0  0  0  0
   20.3999   17.0107   20.8638 C   0  0  0  0  0  0  0  0  0  0  0  0
   19.5948   16.3848   20.4613 H   0  0  0  0  0  0  0  0  0  0  0  0
   20.8575   17.5265   20.0110 H   0  0  0  0  0  0  0  0  0  0  0  0
   19.8047   18.0426   21.8571 C   0  0  0  0  0  0  0  0  0  0  0  0
   18.9684   18.5539   21.3642 H   0  0  0  0  0  0  0  0  0  0  0  0
   19.3921   17.5150   22.7281 H   0  0  0  0  0  0  0  0  0  0  0  0
   20.8433   19.0907   22.3199 C   0  0  0  0  0  0  0  0  0  0  0  0
   21.1868   19.6712   21.4529 H   0  0  0  0  0  0  0  0  0  0  0  0
   21.7289   18.5723   22.7119 H   0  0  0  0  0  0  0  0  0  0  0  0
   20.3272   20.0570   23.4154 C   0  0  0  0  0  0  0  0  0  0  0  0
   20.0677   19.4938   24.3223 H   0  0  0  0  0  0  0  0  0  0  0  0
   21.1636   20.7102   23.6995 H   0  0  0  0  0  0  0  0  0  0  0  0
   19.1408   20.9545   22.9831 C   0  0  0  0  0  0  0  0  0  0  0  0
   19.1656   21.1226   21.8976 H   0  0  0  0  0  0  0  0  0  0  0  0
   19.2608   21.9430   23.4477 H   0  0  0  0  0  0  0  0  0  0  0  0
   17.7657   20.3921   23.4072 C   0  0  0  0  0  0  0  0  0  0  0  0
   17.5726   19.4083   22.9648 H   0  0  0  0  0  0  0  0  0  0  0  0
   16.9604   21.0667   23.0889 H   0  0  0  0  0  0  0  0  0  0  0  0
   17.7060   20.2899   24.4986 H   0  0  0  0  0  0  0  0  0  0  0  0
  1  2  1  0  0  0  0
  1  3  2  0  0  0  0
  1  4  1  0  0  0  0
  4  5  1  0  0  0  0
  4  6  1  0  0  0  0
  4  7  1  0  0  0  0
  7  8  1  0  0  0  0
  7  9  1  0  0  0  0
  7 10  1  0  0  0  0
 10 11  1  0  0  0  0
 10 12  1  0  0  0  0
 10 13  1  0  0  0  0
 13 14  1  0  0  0  0
 13 15  1  0  0  0  0
 13 16  1  0  0  0  0
 16 17  1  0  0  0  0
 16 18  1  0  0  0  0
 16 19  1  0  0  0  0
 19 20  1  0  0  0  0
 19 21  1  0  0  0  0
 19 22  1  0  0  0  0
M  END
> <VConfSearch Rank>
258

> <Conf_Id>
82

> <Delta U+W>
3.438

> <U+W>
-49.721

> <U>
11.773

> <W>
-61.495

> <W(PB)>
-63.749

> <W(SA)>
2.254

> <Valence>
10.419

> <Coulomb>
0.565

> <VdW>
0.789

> <VdW6>
-8.847

> <VdW12>
9.636

> <Bond>
0.200

> <Angle>
3.187

> <Pdih>
7.032

> <Idih>
0.001

> <Tether>
0.000

$$$$
VeraChem MOL file


 22 21  0  0  0  0  0  0  0  0999 V2000     
   22.7633   20.4536   23.2035 C   0  0  0  0  0  0  0  0  0  0  0  0
   23.2887   19.8330   24.1067 O   0  5  0  0  0  0  0  0  0  0  0  0
   23.3660   20.8658   22.2320 O   0  0  0  0  0  0  0  0  0  0  0  0
   21.2699   20.7505   23.3082 C   0  0  0  0  0  0  0  0  0  0  0  0
   21.0283   21.5784   22.6307 H   0  0  0  0  0  0  0  0  0  0  0  0
   21.0787   21.1080   24.3269 H   0  0  0  0  0  0  0  0  0  0  0  0
   20.3596   19.5308   23.0093 C   0  0  0  0  0  0  0  0  0  0  0  0
   20.6439   18.6943   23.6624 H   0  0  0  0  0  0  0  0  0  0  0  0
   19.3266   19.8005   23.2623 H   0  0  0  0  0  0  0  0  0  0  0  0
   20.4244   19.0885   21.5290 C   0  0  0  0  0  0  0  0  0  0  0  0
   21.4736   18.9263   21.2465 H   0  0  0  0  0  0  0  0  0  0  0  0
   20.0571   19.9021   20.8887 H   0  0  0  0  0  0  0  0  0  0  0  0
   19.6362   17.7916   21.2174 C   0  0  0  0  0  0  0  0  0  0  0  0
   19.8033   17.5506   20.1587 H   0  0  0  0  0  0  0  0  0  0  0  0
   20.0568   16.9500   21.7845 H   0  0  0  0  0  0  0  0  0  0  0  0
   18.1082   17.8879   21.4538 C   0  0  0  0  0  0  0  0  0  0  0  0
   17.5952   17.3052   20.6761 H   0  0  0  0  0  0  0  0  0  0  0  0
   17.7681   18.9255   21.3317 H   0  0  0  0  0  0  0  0  0  0  0  0
   17.6690   17.3380   22.8291 C   0  0  0  0  0  0  0  0  0  0  0  0
   17.9404   16.2791   22.9305 H   0  0  0  0  0  0  0  0  0  0  0  0
   16.5803   17.4177   22.9445 H   0  0  0  0  0  0  0  0  0  0  0  0
   18.1342   17.8865   23.6559 H   0  0  0  0  0  0  0  0  0  0  0  0
  1  2  1  0  0  0  0
  1  3  2  0  0  0  0
  1  4  1  0  0  0  0
  4  5  1  0  0  0  0
  4  6  1  0  0  0  0
  4  7  1  0  0  0  0
  7  8  1  0  0  0  0
  7  9  1  0  0  0  0
  7 10  1  0  0  0  0
 10 11  1  0  0  0  0
 10 12  1  0  0  0  0
 10 13  1  0  0  0  0
 13 14  1  0  0  0  0
 13 15  1  0  0  0  0
 13 16  1  0  0  0  0
 16 17  1  0  0  0  0
 16 18  1  0  0  0  0
 16 19  1  0  0  0  0
 19 20  1  0  0  0  0
 19 21  1  0  0  0  0
 19 22  1  0  0  0  0
M  END
> <VConfSearch Rank>
259

> <Conf_Id>
94

> <Delta U+W>
3.471

> <U+W>
-49.688

> <U>
11.773

> <W>
-61.461

> <W(PB)>
-63.710

> <W(SA)>
2.248

> <Valence>
10.419

> <Coulomb>
0.566

> <VdW>
0.789

> <VdW6>
-8.847

> <VdW12>
9.636

> <Bond>
0.200

> <Angle>
3.187

> <Pdih>
7.032

> <Idih>
0.001

> <Tether>
0.000

$$$$
VeraChem MOL file


 22 21  0  0  0  0  0  0  0  0999 V2000     
   20.6609   16.1887   20.9663 C   0  0  0  0  0  0  0  0  0  0  0  0
   21.0234   15.9019   19.8424 O   0  5  0  0  0  0  0  0  0  0  0  0
   20.0587   15.4245   21.6942 O   0  0  0  0  0  0  0  0  0  0  0  0
   20.9616   17.5907   21.4838 C   0  0  0  0  0  0  0  0  0  0  0  0
   21.9094   17.9212   21.0425 H   0  0  0  0  0  0  0  0  0  0  0  0
   21.1131   17.5213   22.5669 H   0  0  0  0  0  0  0  0  0  0  0  0
   19.8361   18.6057   21.1558 C   0  0  0  0  0  0  0  0  0  0  0  0
   19.6524   18.5913   20.0726 H   0  0  0  0  0  0  0  0  0  0  0  0
   18.8991   18.2805   21.6270 H   0  0  0  0  0  0  0  0  0  0  0  0
   20.1700   20.0577   21.5808 C   0  0  0  0  0  0  0  0  0  0  0  0
   19.3500   20.7170   21.2671 H   0  0  0  0  0  0  0  0  0  0  0  0
   21.0533   20.3961   21.0224 H   0  0  0  0  0  0  0  0  0  0  0  0
   20.4362   20.2576   23.0962 C   0  0  0  0  0  0  0  0  0  0  0  0
   21.3551   19.7265   23.3770 H   0  0  0  0  0  0  0  0  0  0  0  0
   20.6415   21.3212   23.2779 H   0  0  0  0  0  0  0  0  0  0  0  0
   19.2889   19.8045   24.0322 C   0  0  0  0  0  0  0  0  0  0  0  0
   19.6003   19.9688   25.0729 H   0  0  0  0  0  0  0  0  0  0  0  0
   19.1234   18.7235   23.9317 H   0  0  0  0  0  0  0  0  0  0  0  0
   17.9653   20.5598   23.7844 C   0  0  0  0  0  0  0  0  0  0  0  0
   18.1116   21.6449   23.8639 H   0  0  0  0  0  0  0  0  0  0  0  0
   17.2100   20.2646   24.5241 H   0  0  0  0  0  0  0  0  0  0  0  0
   17.5607   20.3386   22.7888 H   0  0  0  0  0  0  0  0  0  0  0  0
  1  2  1  0  0  0  0
  1  3  2  0  0  0  0
  1  4  1  0  0  0  0
  4  5  1  0  0  0  0
  4  6  1  0  0  0  0
  4  7  1  0  0  0  0
  7  8  1  0  0  0  0
  7  9  1  0  0  0  0
  7 10  1  0  0  0  0
 10 11  1  0  0  0  0
 10 12  1  0  0  0  0
 10 13  1  0  0  0  0
 13 14  1  0  0  0  0
 13 15  1  0  0  0  0
 13 16  1  0  0  0  0
 16 17  1  0  0  0  0
 16 18  1  0  0  0  0
 16 19  1  0  0  0  0
 19 20  1  0  0  0  0
 19 21  1  0  0  0  0
 19 22  1  0  0  0  0
M  END
> <VConfSearch Rank>
260

> <Conf_Id>
56

> <Delta U+W>
0.853

> <U+W>
-52.307

> <U>
8.874

> <W>
-61.181

> <W(PB)>
-63.413

> <W(SA)>
2.232

> <Valence>
8.479

> <Coulomb>
-0.357

> <VdW>
0.753

> <VdW6>
-9.081

> <VdW12>
9.833

> <Bond>
0.221

> <Angle>
3.208

> <Pdih>
5.050

> <Idih>
0.000

> <Tether>
0.000

$$$$
VeraChem MOL file


 22 21  0  0  0  0  0  0  0  0999 V2000     
   16.3363   16.9377   21.6952 C   0  0  0  0  0  0  0  0  0  0  0  0
   16.8753   15.8515   21.7856 O   0  5  0  0  0  0  0  0  0  0  0  0
   15.1410   17.0730   21.5259 O   0  0  0  0  0  0  0  0  0  0  0  0
   17.1759   18.2123   21.7952 C   0  0  0  0  0  0  0  0  0  0  0  0
   16.7679   18.8088   22.6196 H   0  0  0  0  0  0  0  0  0  0  0  0
   17.0131   18.7841   20.8740 H   0  0  0  0  0  0  0  0  0  0  0  0
   18.6963   17.9889   22.0119 C   0  0  0  0  0  0  0  0  0  0  0  0
   18.8520   17.4101   22.9330 H   0  0  0  0  0  0  0  0  0  0  0  0
   19.0975   17.3856   21.1858 H   0  0  0  0  0  0  0  0  0  0  0  0
   19.4660   19.3246   22.1013 C   0  0  0  0  0  0  0  0  0  0  0  0
   19.0631   19.9259   22.9279 H   0  0  0  0  0  0  0  0  0  0  0  0
   19.3087   19.9015   21.1796 H   0  0  0  0  0  0  0  0  0  0  0  0
   20.9781   19.1001   22.3169 C   0  0  0  0  0  0  0  0  0  0  0  0
   21.1359   18.5232   23.2385 H   0  0  0  0  0  0  0  0  0  0  0  0
   21.3814   18.4988   21.4905 H   0  0  0  0  0  0  0  0  0  0  0  0
   21.7478   20.4345   22.4064 C   0  0  0  0  0  0  0  0  0  0  0  0
   21.3485   21.0379   23.2334 H   0  0  0  0  0  0  0  0  0  0  0  0
   21.5940   21.0135   21.4852 H   0  0  0  0  0  0  0  0  0  0  0  0
   23.2574   20.2059   22.6215 C   0  0  0  0  0  0  0  0  0  0  0  0
   23.4425   19.6555   23.5533 H   0  0  0  0  0  0  0  0  0  0  0  0
   23.7889   21.1645   22.6829 H   0  0  0  0  0  0  0  0  0  0  0  0
   23.6898   19.6311   21.7921 H   0  0  0  0  0  0  0  0  0  0  0  0
  1  2  1  0  0  0  0
  1  3  2  0  0  0  0
  1  4  1  0  0  0  0
  4  5  1  0  0  0  0
  4  6  1  0  0  0  0
  4  7  1  0  0  0  0
  7  8  1  0  0  0  0
  7  9  1  0  0  0  0
  7 10  1  0  0  0  0
 10 11  1  0  0  0  0
 10 12  1  0  0  0  0
 10 13  1  0  0  0  0
 13 14  1  0  0  0  0
 13 15  1  0  0  0  0
 13 16  1  0  0  0  0
 16 17  1  0  0  0  0
 16 18  1  0  0  0  0
 16 19  1  0  0  0  0
 19 20  1  0  0  0  0
 19 21  1  0  0  0  0
 19 22  1  0  0  0  0
M  END
> <VConfSearch Rank>
261

> <Conf_Id>
0

> <Delta U+W>
0.000

> <U+W>
-53.159

> <U>
6.763

> <W>
-59.922

> <W(PB)>
-62.256

> <W(SA)>
2.334

> <Valence>
7.600

> <Coulomb>
-2.139

> <VdW>
1.302

> <VdW6>
-6.786

> <VdW12>
8.088

> <Bond>
0.134

> <Angle>
2.720

> <Pdih>
4.746

> <Idih>
0.000

> <Tether>
0.000

$$$$
VeraChem MOL file


 22 21  0  0  0  0  0  0  0  0999 V2000     
   23.0268   16.6502   22.7491 C   0  0  0  0  0  0  0  0  0  0  0  0
   23.3641   16.0102   21.7729 O   0  5  0  0  0  0  0  0  0  0  0  0
   23.1601   16.2568   23.8909 O   0  0  0  0  0  0  0  0  0  0  0  0
   22.3799   18.0129   22.5282 C   0  0  0  0  0  0  0  0  0  0  0  0
   22.8185   18.4561   21.6260 H   0  0  0  0  0  0  0  0  0  0  0  0
   22.6508   18.6595   23.3715 H   0  0  0  0  0  0  0  0  0  0  0  0
   20.8397   17.9325   22.3895 C   0  0  0  0  0  0  0  0  0  0  0  0
   20.5850   17.2715   21.5494 H   0  0  0  0  0  0  0  0  0  0  0  0
   20.4172   17.4748   23.2949 H   0  0  0  0  0  0  0  0  0  0  0  0
   20.2091   19.3241   22.1668 C   0  0  0  0  0  0  0  0  0  0  0  0
   20.6344   19.7793   21.2617 H   0  0  0  0  0  0  0  0  0  0  0  0
   20.4666   19.9827   23.0077 H   0  0  0  0  0  0  0  0  0  0  0  0
   18.6737   19.2408   22.0290 C   0  0  0  0  0  0  0  0  0  0  0  0
   18.4157   18.5822   21.1882 H   0  0  0  0  0  0  0  0  0  0  0  0
   18.2480   18.7856   22.9338 H   0  0  0  0  0  0  0  0  0  0  0  0
   18.0427   20.6312   21.8063 C   0  0  0  0  0  0  0  0  0  0  0  0
   18.4646   21.0889   20.9008 H   0  0  0  0  0  0  0  0  0  0  0  0
   18.2969   21.2923   22.6464 H   0  0  0  0  0  0  0  0  0  0  0  0
   16.5095   20.5437   21.6692 C   0  0  0  0  0  0  0  0  0  0  0  0
   16.0578   20.1181   22.5749 H   0  0  0  0  0  0  0  0  0  0  0  0
   16.2267   19.9130   20.8161 H   0  0  0  0  0  0  0  0  0  0  0  0
   16.0776   21.5406   21.5115 H   0  0  0  0  0  0  0  0  0  0  0  0
  1  2  1  0  0  0  0
  1  3  2  0  0  0  0
  1  4  1  0  0  0  0
  4  5  1  0  0  0  0
  4  6  1  0  0  0  0
  4  7  1  0  0  0  0
  7  8  1  0  0  0  0
  7  9  1  0  0  0  0
  7 10  1  0  0  0  0
 10 11  1  0  0  0  0
 10 12  1  0  0  0  0
 10 13  1  0  0  0  0
 13 14  1  0  0  0  0
 13 15  1  0  0  0  0
 13 16  1  0  0  0  0
 16 17  1  0  0  0  0
 16 18  1  0  0  0  0
 16 19  1  0  0  0  0
 19 20  1  0  0  0  0
 19 21  1  0  0  0  0
 19 22  1  0  0  0  0
M  END
> <VConfSearch Rank>
262

> <Conf_Id>
10

> <Delta U+W>
-1.291

> <U+W>
-54.451

> <U>
5.779

> <W>
-60.230

> <W(PB)>
-62.557

> <W(SA)>
2.328

> <Valence>
7.101

> <Coulomb>
-2.079

> <VdW>
0.757

> <VdW6>
-6.496

> <VdW12>
7.253

> <Bond>
0.100

> <Angle>
2.262

> <Pdih>
4.738

> <Idih>
0.001

> <Tether>
0.000

$$$$
VeraChem MOL file


 22 21  0  0  0  0  0  0  0  0999 V2000     
   20.0053   15.3145   23.6243 C   0  0  0  0  0  0  0  0  0  0  0  0
   21.0642   14.7610   23.4032 O   0  5  0  0  0  0  0  0  0  0  0  0
   19.2863   15.0407   24.5648 O   0  0  0  0  0  0  0  0  0  0  0  0
   19.5646   16.4285   22.6814 C   0  0  0  0  0  0  0  0  0  0  0  0
   18.4690   16.4207   22.6333 H   0  0  0  0  0  0  0  0  0  0  0  0
   19.9349   16.1910   21.6769 H   0  0  0  0  0  0  0  0  0  0  0  0
   20.0702   17.8245   23.1213 C   0  0  0  0  0  0  0  0  0  0  0  0
   19.7020   18.0410   24.1337 H   0  0  0  0  0  0  0  0  0  0  0  0
   21.1677   17.8122   23.1767 H   0  0  0  0  0  0  0  0  0  0  0  0
   19.6110   18.9343   22.1509 C   0  0  0  0  0  0  0  0  0  0  0  0
   18.5137   18.9457   22.0992 H   0  0  0  0  0  0  0  0  0  0  0  0
   19.9779   18.7046   21.1421 H   0  0  0  0  0  0  0  0  0  0  0  0
   20.1214   20.3253   22.5924 C   0  0  0  0  0  0  0  0  0  0  0  0
   19.8055   20.5097   23.6283 H   0  0  0  0  0  0  0  0  0  0  0  0
   21.2199   20.3326   22.5961 H   0  0  0  0  0  0  0  0  0  0  0  0
   19.5997   21.4810   21.7072 C   0  0  0  0  0  0  0  0  0  0  0  0
   19.9092   22.4354   22.1551 H   0  0  0  0  0  0  0  0  0  0  0  0
   18.5009   21.4808   21.7060 H   0  0  0  0  0  0  0  0  0  0  0  0
   20.1207   21.4217   20.2548 C   0  0  0  0  0  0  0  0  0  0  0  0
   19.7958   22.3078   19.6942 H   0  0  0  0  0  0  0  0  0  0  0  0
   19.7398   20.5379   19.7282 H   0  0  0  0  0  0  0  0  0  0  0  0
   21.2178   21.3908   20.2319 H   0  0  0  0  0  0  0  0  0  0  0  0
  1  2  1  0  0  0  0
  1  3  2  0  0  0  0
  1  4  1  0  0  0  0
  4  5  1  0  0  0  0
  4  6  1  0  0  0  0
  4  7  1  0  0  0  0
  7  8  1  0  0  0  0
  7  9  1  0  0  0  0
  7 10  1  0  0  0  0
 10 11  1  0  0  0  0
 10 12  1  0  0  0  0
 10 13  1  0  0  0  0
 13 14  1  0  0  0  0
 13 15  1  0  0  0  0
 13 16  1  0  0  0  0
 16 17  1  0  0  0  0
 16 18  1  0  0  0  0
 16 19  1  0  0  0  0
 19 20  1  0  0  0  0
 19 21  1  0  0  0  0
 19 22  1  0  0  0  0
M  END
> <VConfSearch Rank>
263

> <Conf_Id>
37

> <Delta U+W>
-0.345

> <U+W>
-53.504

> <U>
6.751

> <W>
-60.255

> <W(PB)>
-62.592

> <W(SA)>
2.336

> <Valence>
7.602

> <Coulomb>
-1.744

> <VdW>
0.894

> <VdW6>
-7.110

> <VdW12>
8.004

> <Bond>
0.131

> <Angle>
2.489

> <Pdih>
4.982

> <Idih>
0.001

> <Tether>
0.000

$$$$
VeraChem MOL file


 22 21  0  0  0  0  0  0  0  0999 V2000     
   22.9803   16.8414   22.7924 C   0  0  0  0  0  0  0  0  0  0  0  0
   22.7405   15.6505   22.8192 O   0  5  0  0  0  0  0  0  0  0  0  0
   23.9218   17.3514   23.3669 O   0  0  0  0  0  0  0  0  0  0  0  0
   22.0353   17.7488   22.0128 C   0  0  0  0  0  0  0  0  0  0  0  0
   21.6465   17.1822   21.1582 H   0  0  0  0  0  0  0  0  0  0  0  0
   22.6205   18.5838   21.6090 H   0  0  0  0  0  0  0  0  0  0  0  0
   20.8661   18.2838   22.8759 C   0  0  0  0  0  0  0  0  0  0  0  0
   20.2977   17.4359   23.2827 H   0  0  0  0  0  0  0  0  0  0  0  0
   21.2725   18.8368   23.7341 H   0  0  0  0  0  0  0  0  0  0  0  0
   19.9244   19.1995   22.0641 C   0  0  0  0  0  0  0  0  0  0  0  0
   19.5302   18.6399   21.2059 H   0  0  0  0  0  0  0  0  0  0  0  0
   20.4948   20.0473   21.6605 H   0  0  0  0  0  0  0  0  0  0  0  0
   18.7569   19.7278   22.9290 C   0  0  0  0  0  0  0  0  0  0  0  0
   18.1542   18.8842   23.2926 H   0  0  0  0  0  0  0  0  0  0  0  0
   19.1675   20.2234   23.8194 H   0  0  0  0  0  0  0  0  0  0  0  0
   17.8457   20.7315   22.1850 C   0  0  0  0  0  0  0  0  0  0  0  0
   18.4440   21.5800   21.8254 H   0  0  0  0  0  0  0  0  0  0  0  0
   17.1196   21.1444   22.8988 H   0  0  0  0  0  0  0  0  0  0  0  0
   17.0772   20.1002   21.0038 C   0  0  0  0  0  0  0  0  0  0  0  0
   16.4946   19.2303   21.3341 H   0  0  0  0  0  0  0  0  0  0  0  0
   17.7603   19.7759   20.2089 H   0  0  0  0  0  0  0  0  0  0  0  0
   16.3806   20.8273   20.5668 H   0  0  0  0  0  0  0  0  0  0  0  0
  1  2  1  0  0  0  0
  1  3  2  0  0  0  0
  1  4  1  0  0  0  0
  4  5  1  0  0  0  0
  4  6  1  0  0  0  0
  4  7  1  0  0  0  0
  7  8  1  0  0  0  0
  7  9  1  0  0  0  0
  7 10  1  0  0  0  0
 10 11  1  0  0  0  0
 10 12  1  0  0  0  0
 10 13  1  0  0  0  0
 13 14  1  0  0  0  0
 13 15  1  0  0  0  0
 13 16  1  0  0  0  0
 16 17  1  0  0  0  0
 16 18  1  0  0  0  0
 16 19  1  0  0  0  0
 19 20  1  0  0  0  0
 19 21  1  0  0  0  0
 19 22  1  0  0  0  0
M  END
> <VConfSearch Rank>
264

> <Conf_Id>
38

> <Delta U+W>
-0.439

> <U+W>
-53.598

> <U>
6.751

> <W>
-60.350

> <W(PB)>
-62.659

> <W(SA)>
2.309

> <Valence>
7.602

> <Coulomb>
-1.744

> <VdW>
0.893

> <VdW6>
-7.110

> <VdW12>
8.004

> <Bond>
0.131

> <Angle>
2.489

> <Pdih>
4.981

> <Idih>
0.001

> <Tether>
0.000

$$$$
VeraChem MOL file


 22 21  0  0  0  0  0  0  0  0999 V2000     
   18.1990   20.4737   19.1799 C   0  0  0  0  0  0  0  0  0  0  0  0
   17.9590   21.6574   19.0459 O   0  5  0  0  0  0  0  0  0  0  0  0
   17.6331   19.5978   18.5561 O   0  0  0  0  0  0  0  0  0  0  0  0
   19.2522   20.0640   20.2032 C   0  0  0  0  0  0  0  0  0  0  0  0
   20.0081   20.8570   20.2492 H   0  0  0  0  0  0  0  0  0  0  0  0
   19.7483   19.1625   19.8268 H   0  0  0  0  0  0  0  0  0  0  0  0
   18.6536   19.8130   21.6119 C   0  0  0  0  0  0  0  0  0  0  0  0
   18.0825   20.7019   21.9139 H   0  0  0  0  0  0  0  0  0  0  0  0
   17.9338   18.9843   21.5632 H   0  0  0  0  0  0  0  0  0  0  0  0
   19.7183   19.5183   22.6955 C   0  0  0  0  0  0  0  0  0  0  0  0
   19.2140   19.4980   23.6700 H   0  0  0  0  0  0  0  0  0  0  0  0
   20.4409   20.3446   22.7358 H   0  0  0  0  0  0  0  0  0  0  0  0
   20.4660   18.1802   22.4756 C   0  0  0  0  0  0  0  0  0  0  0  0
   19.7430   17.3542   22.4336 H   0  0  0  0  0  0  0  0  0  0  0  0
   20.9733   18.2003   21.5028 H   0  0  0  0  0  0  0  0  0  0  0  0
   21.5269   17.8839   23.5614 C   0  0  0  0  0  0  0  0  0  0  0  0
   22.2455   18.7134   23.6145 H   0  0  0  0  0  0  0  0  0  0  0  0
   22.0999   16.9964   23.2596 H   0  0  0  0  0  0  0  0  0  0  0  0
   20.9212   17.6297   24.9589 C   0  0  0  0  0  0  0  0  0  0  0  0
   20.4401   18.5310   25.3585 H   0  0  0  0  0  0  0  0  0  0  0  0
   21.7045   17.3306   25.6675 H   0  0  0  0  0  0  0  0  0  0  0  0
   20.1737   16.8265   24.9231 H   0  0  0  0  0  0  0  0  0  0  0  0
  1  2  1  0  0  0  0
  1  3  2  0  0  0  0
  1  4  1  0  0  0  0
  4  5  1  0  0  0  0
  4  6  1  0  0  0  0
  4  7  1  0  0  0  0
  7  8  1  0  0  0  0
  7  9  1  0  0  0  0
  7 10  1  0  0  0  0
 10 11  1  0  0  0  0
 10 12  1  0  0  0  0
 10 13  1  0  0  0  0
 13 14  1  0  0  0  0
 13 15  1  0  0  0  0
 13 16  1  0  0  0  0
 16 17  1  0  0  0  0
 16 18  1  0  0  0  0
 16 19  1  0  0  0  0
 19 20  1  0  0  0  0
 19 21  1  0  0  0  0
 19 22  1  0  0  0  0
M  END
> <VConfSearch Rank>
265

> <Conf_Id>
60

> <Delta U+W>
0.386

> <U+W>
-52.773

> <U>
7.689

> <W>
-60.463

> <W(PB)>
-62.772

> <W(SA)>
2.309

> <Valence>
8.197

> <Coulomb>
-1.561

> <VdW>
1.053

> <VdW6>
-7.737

> <VdW12>
8.790

> <Bond>
0.181

> <Angle>
2.780

> <Pdih>
5.235

> <Idih>
0.001

> <Tether>
0.000

$$$$
VeraChem MOL file


 22 21  0  0  0  0  0  0  0  0999 V2000     
   17.9450   20.5925   25.0308 C   0  0  0  0  0  0  0  0  0  0  0  0
   16.7856   20.2289   25.0175 O   0  5  0  0  0  0  0  0  0  0  0  0
   18.3310   21.5885   25.6101 O   0  0  0  0  0  0  0  0  0  0  0  0
   18.9681   19.7662   24.2595 C   0  0  0  0  0  0  0  0  0  0  0  0
   18.6550   18.7175   24.3107 H   0  0  0  0  0  0  0  0  0  0  0  0
   19.9303   19.8449   24.7795 H   0  0  0  0  0  0  0  0  0  0  0  0
   19.1180   20.2225   22.7847 C   0  0  0  0  0  0  0  0  0  0  0  0
   18.1609   20.0932   22.2607 H   0  0  0  0  0  0  0  0  0  0  0  0
   19.3356   21.2995   22.7710 H   0  0  0  0  0  0  0  0  0  0  0  0
   20.2391   19.4823   22.0166 C   0  0  0  0  0  0  0  0  0  0  0  0
   21.1928   19.6066   22.5474 H   0  0  0  0  0  0  0  0  0  0  0  0
   20.3602   19.9692   21.0406 H   0  0  0  0  0  0  0  0  0  0  0  0
   19.9500   17.9755   21.8071 C   0  0  0  0  0  0  0  0  0  0  0  0
   19.8319   17.4867   22.7824 H   0  0  0  0  0  0  0  0  0  0  0  0
   18.9954   17.8512   21.2780 H   0  0  0  0  0  0  0  0  0  0  0  0
   21.0687   17.2371   21.0354 C   0  0  0  0  0  0  0  0  0  0  0  0
   20.8534   16.1597   21.0503 H   0  0  0  0  0  0  0  0  0  0  0  0
   22.0277   17.3686   21.5554 H   0  0  0  0  0  0  0  0  0  0  0  0
   21.2062   17.6936   19.5666 C   0  0  0  0  0  0  0  0  0  0  0  0
   20.2495   17.6033   19.0358 H   0  0  0  0  0  0  0  0  0  0  0  0
   21.9441   17.0744   19.0403 H   0  0  0  0  0  0  0  0  0  0  0  0
   21.5408   18.7362   19.4995 H   0  0  0  0  0  0  0  0  0  0  0  0
  1  2  1  0  0  0  0
  1  3  2  0  0  0  0
  1  4  1  0  0  0  0
  4  5  1  0  0  0  0
  4  6  1  0  0  0  0
  4  7  1  0  0  0  0
  7  8  1  0  0  0  0
  7  9  1  0  0  0  0
  7 10  1  0  0  0  0
 10 11  1  0  0  0  0
 10 12  1  0  0  0  0
 10 13  1  0  0  0  0
 13 14  1  0  0  0  0
 13 15  1  0  0  0  0
 13 16  1  0  0  0  0
 16 17  1  0  0  0  0
 16 18  1  0  0  0  0
 16 19  1  0  0  0  0
 19 20  1  0  0  0  0
 19 21  1  0  0  0  0
 19 22  1  0  0  0  0
M  END
> <VConfSearch Rank>
266

> <Conf_Id>
28

> <Delta U+W>
0.351

> <U+W>
-52.808

> <U>
7.689

> <W>
-60.498

> <W(PB)>
-62.768

> <W(SA)>
2.270

> <Valence>
8.197

> <Coulomb>
-1.561

> <VdW>
1.053

> <VdW6>
-7.737

> <VdW12>
8.791

> <Bond>
0.181

> <Angle>
2.780

> <Pdih>
5.235

> <Idih>
0.001

> <Tether>
0.000

$$$$
VeraChem MOL file


 22 21  0  0  0  0  0  0  0  0999 V2000     
   19.0073   19.6806   18.7271 C   0  0  0  0  0  0  0  0  0  0  0  0
   18.4492   18.8060   18.0945 O   0  5  0  0  0  0  0  0  0  0  0  0
   18.6868   20.8518   18.6835 O   0  0  0  0  0  0  0  0  0  0  0  0
   20.1608   19.2834   19.6414 C   0  0  0  0  0  0  0  0  0  0  0  0
   20.8733   20.1165   19.6727 H   0  0  0  0  0  0  0  0  0  0  0  0
   20.6785   18.4308   19.1856 H   0  0  0  0  0  0  0  0  0  0  0  0
   19.6964   18.9239   21.0743 C   0  0  0  0  0  0  0  0  0  0  0  0
   19.1644   19.7844   21.5009 H   0  0  0  0  0  0  0  0  0  0  0  0
   18.9772   18.0946   21.0251 H   0  0  0  0  0  0  0  0  0  0  0  0
   20.8857   18.5299   21.9806 C   0  0  0  0  0  0  0  0  0  0  0  0
   21.5786   19.3775   22.0724 H   0  0  0  0  0  0  0  0  0  0  0  0
   21.4487   17.7191   21.4982 H   0  0  0  0  0  0  0  0  0  0  0  0
   20.4566   18.0570   23.3897 C   0  0  0  0  0  0  0  0  0  0  0  0
   19.7669   17.2068   23.2985 H   0  0  0  0  0  0  0  0  0  0  0  0
   21.3447   17.6811   23.9160 H   0  0  0  0  0  0  0  0  0  0  0  0
   19.8030   19.1691   24.2408 C   0  0  0  0  0  0  0  0  0  0  0  0
   18.8694   19.5057   23.7713 H   0  0  0  0  0  0  0  0  0  0  0  0
   20.4707   20.0403   24.2884 H   0  0  0  0  0  0  0  0  0  0  0  0
   19.4967   18.6802   25.6708 C   0  0  0  0  0  0  0  0  0  0  0  0
   20.4155   18.3707   26.1860 H   0  0  0  0  0  0  0  0  0  0  0  0
   18.8082   17.8251   25.6541 H   0  0  0  0  0  0  0  0  0  0  0  0
   19.0302   19.4795   26.2612 H   0  0  0  0  0  0  0  0  0  0  0  0
  1  2  1  0  0  0  0
  1  3  2  0  0  0  0
  1  4  1  0  0  0  0
  4  5  1  0  0  0  0
  4  6  1  0  0  0  0
  4  7  1  0  0  0  0
  7  8  1  0  0  0  0
  7  9  1  0  0  0  0
  7 10  1  0  0  0  0
 10 11  1  0  0  0  0
 10 12  1  0  0  0  0
 10 13  1  0  0  0  0
 13 14  1  0  0  0  0
 13 15  1  0  0  0  0
 13 16  1  0  0  0  0
 16 17  1  0  0  0  0
 16 18  1  0  0  0  0
 16 19  1  0  0  0  0
 19 20  1  0  0  0  0
 19 21  1  0  0  0  0
 19 22  1  0  0  0  0
M  END
> <VConfSearch Rank>
267

> <Conf_Id>
50

> <Delta U+W>
-0.486

> <U+W>
-53.646

> <U>
7.026

> <W>
-60.672

> <W(PB)>
-62.964

> <W(SA)>
2.292

> <Valence>
7.637

> <Coulomb>
-1.488

> <VdW>
0.877

> <VdW6>
-7.165

> <VdW12>
8.043

> <Bond>
0.134

> <Angle>
2.513

> <Pdih>
4.990

> <Idih>
0.001

> <Tether>
0.000

$$$$
VeraChem MOL file


 22 21  0  0  0  0  0  0  0  0999 V2000     
   18.7067   18.5232   25.8158 C   0  0  0  0  0  0  0  0  0  0  0  0
   18.6108   17.3763   26.2055 O   0  5  0  0  0  0  0  0  0  0  0  0
   17.9069   19.3961   26.0894 O   0  0  0  0  0  0  0  0  0  0  0  0
   19.8848   18.8820   24.9171 C   0  0  0  0  0  0  0  0  0  0  0  0
   20.7393   18.2612   25.2118 H   0  0  0  0  0  0  0  0  0  0  0  0
   20.1585   19.9255   25.1144 H   0  0  0  0  0  0  0  0  0  0  0  0
   19.5749   18.6867   23.4124 C   0  0  0  0  0  0  0  0  0  0  0  0
   19.2940   17.6397   23.2329 H   0  0  0  0  0  0  0  0  0  0  0  0
   18.7051   19.3018   23.1468 H   0  0  0  0  0  0  0  0  0  0  0  0
   20.7841   19.0619   22.5247 C   0  0  0  0  0  0  0  0  0  0  0  0
   21.6619   18.4911   22.8574 H   0  0  0  0  0  0  0  0  0  0  0  0
   21.0320   20.1230   22.6649 H   0  0  0  0  0  0  0  0  0  0  0  0
   20.5566   18.7777   21.0210 C   0  0  0  0  0  0  0  0  0  0  0  0
   21.5006   18.9529   20.4870 H   0  0  0  0  0  0  0  0  0  0  0  0
   20.3126   17.7159   20.8799 H   0  0  0  0  0  0  0  0  0  0  0  0
   19.4526   19.6545   20.3880 C   0  0  0  0  0  0  0  0  0  0  0  0
   19.6691   20.7154   20.5748 H   0  0  0  0  0  0  0  0  0  0  0  0
   18.4829   19.4380   20.8551 H   0  0  0  0  0  0  0  0  0  0  0  0
   19.3417   19.4145   18.8689 C   0  0  0  0  0  0  0  0  0  0  0  0
   19.0983   18.3656   18.6541 H   0  0  0  0  0  0  0  0  0  0  0  0
   20.2846   19.6585   18.3622 H   0  0  0  0  0  0  0  0  0  0  0  0
   18.5520   20.0414   18.4349 H   0  0  0  0  0  0  0  0  0  0  0  0
  1  2  1  0  0  0  0
  1  3  2  0  0  0  0
  1  4  1  0  0  0  0
  4  5  1  0  0  0  0
  4  6  1  0  0  0  0
  4  7  1  0  0  0  0
  7  8  1  0  0  0  0
  7  9  1  0  0  0  0
  7 10  1  0  0  0  0
 10 11  1  0  0  0  0
 10 12  1  0  0  0  0
 10 13  1  0  0  0  0
 13 14  1  0  0  0  0
 13 15  1  0  0  0  0
 13 16  1  0  0  0  0
 16 17  1  0  0  0  0
 16 18  1  0  0  0  0
 16 19  1  0  0  0  0
 19 20  1  0  0  0  0
 19 21  1  0  0  0  0
 19 22  1  0  0  0  0
M  END
> <VConfSearch Rank>
268

> <Conf_Id>
51

> <Delta U+W>
-0.517

> <U+W>
-53.677

> <U>
7.026

> <W>
-60.703

> <W(PB)>
-63.007

> <W(SA)>
2.304

> <Valence>
7.638

> <Coulomb>
-1.488

> <VdW>
0.877

> <VdW6>
-7.165

> <VdW12>
8.042

> <Bond>
0.134

> <Angle>
2.513

> <Pdih>
4.990

> <Idih>
0.001

> <Tether>
0.000

$$$$
VeraChem MOL file


 22 21  0  0  0  0  0  0  0  0999 V2000     
   21.9878   21.6107   23.0430 C   0  0  0  0  0  0  0  0  0  0  0  0
   22.1838   21.7736   24.2313 O   0  5  0  0  0  0  0  0  0  0  0  0
   22.8724   21.3889   22.2398 O   0  0  0  0  0  0  0  0  0  0  0  0
   20.5535   21.7093   22.5309 C   0  0  0  0  0  0  0  0  0  0  0  0
   20.5794   21.8847   21.4485 H   0  0  0  0  0  0  0  0  0  0  0  0
   20.1033   22.5994   22.9859 H   0  0  0  0  0  0  0  0  0  0  0  0
   19.6824   20.4670   22.8514 C   0  0  0  0  0  0  0  0  0  0  0  0
   19.6892   20.2876   23.9356 H   0  0  0  0  0  0  0  0  0  0  0  0
   18.6416   20.6800   22.5726 H   0  0  0  0  0  0  0  0  0  0  0  0
   20.1595   19.1990   22.1082 C   0  0  0  0  0  0  0  0  0  0  0  0
   21.1951   18.9694   22.3951 H   0  0  0  0  0  0  0  0  0  0  0  0
   20.1635   19.3877   21.0259 H   0  0  0  0  0  0  0  0  0  0  0  0
   19.2601   17.9828   22.4171 C   0  0  0  0  0  0  0  0  0  0  0  0
   19.2566   17.7948   23.4995 H   0  0  0  0  0  0  0  0  0  0  0  0
   18.2244   18.2089   22.1283 H   0  0  0  0  0  0  0  0  0  0  0  0
   19.7364   16.7160   21.6759 C   0  0  0  0  0  0  0  0  0  0  0  0
   20.7716   16.4857   21.9636 H   0  0  0  0  0  0  0  0  0  0  0  0
   19.7395   16.8998   20.5925 H   0  0  0  0  0  0  0  0  0  0  0  0
   18.8362   15.5035   21.9872 C   0  0  0  0  0  0  0  0  0  0  0  0
   18.8395   15.2775   23.0616 H   0  0  0  0  0  0  0  0  0  0  0  0
   19.1891   14.6122   21.4523 H   0  0  0  0  0  0  0  0  0  0  0  0
   17.7996   15.6948   21.6802 H   0  0  0  0  0  0  0  0  0  0  0  0
  1  2  1  0  0  0  0
  1  3  2  0  0  0  0
  1  4  1  0  0  0  0
  4  5  1  0  0  0  0
  4  6  1  0  0  0  0
  4  7  1  0  0  0  0
  7  8  1  0  0  0  0
  7  9  1  0  0  0  0
  7 10  1  0  0  0  0
 10 11  1  0  0  0  0
 10 12  1  0  0  0  0
 10 13  1  0  0  0  0
 13 14  1  0  0  0  0
 13 15  1  0  0  0  0
 13 16  1  0  0  0  0
 16 17  1  0  0  0  0
 16 18  1  0  0  0  0
 16 19  1  0  0  0  0
 19 20  1  0  0  0  0
 19 21  1  0  0  0  0
 19 22  1  0  0  0  0
M  END
> <VConfSearch Rank>
269

> <Conf_Id>
43

> <Delta U+W>
-0.129

> <U+W>
-53.289

> <U>
7.937

> <W>
-61.225

> <W(PB)>
-63.523

> <W(SA)>
2.297

> <Valence>
7.358

> <Coulomb>
-0.022

> <VdW>
0.601

> <VdW6>
-7.363

> <VdW12>
7.964

> <Bond>
0.121

> <Angle>
2.425

> <Pdih>
4.811

> <Idih>
0.000

> <Tether>
0.000

$$$$
VeraChem MOL file


 22 21  0  0  0  0  0  0  0  0999 V2000     
   22.8734   20.3264   21.7232 C   0  0  0  0  0  0  0  0  0  0  0  0
   23.7232   19.8602   22.4562 O   0  5  0  0  0  0  0  0  0  0  0  0
   22.5946   21.5086   21.6836 O   0  0  0  0  0  0  0  0  0  0  0  0
   22.1295   19.3760   20.7891 C   0  0  0  0  0  0  0  0  0  0  0  0
   22.8767   18.7233   20.3225 H   0  0  0  0  0  0  0  0  0  0  0  0
   21.6732   19.9632   19.9829 H   0  0  0  0  0  0  0  0  0  0  0  0
   21.0543   18.5102   21.4956 C   0  0  0  0  0  0  0  0  0  0  0  0
   20.6713   17.7666   20.7837 H   0  0  0  0  0  0  0  0  0  0  0  0
   21.5209   17.9498   22.3178 H   0  0  0  0  0  0  0  0  0  0  0  0
   19.8764   19.3507   22.0374 C   0  0  0  0  0  0  0  0  0  0  0  0
   19.4218   19.9188   21.2142 H   0  0  0  0  0  0  0  0  0  0  0  0
   20.2496   20.0860   22.7636 H   0  0  0  0  0  0  0  0  0  0  0  0
   18.8037   18.4660   22.7084 C   0  0  0  0  0  0  0  0  0  0  0  0
   18.4269   17.7316   21.9833 H   0  0  0  0  0  0  0  0  0  0  0  0
   19.2591   17.8983   23.5315 H   0  0  0  0  0  0  0  0  0  0  0  0
   17.6274   19.3048   23.2504 C   0  0  0  0  0  0  0  0  0  0  0  0
   17.1683   19.8729   22.4294 H   0  0  0  0  0  0  0  0  0  0  0  0
   18.0004   20.0394   23.9775 H   0  0  0  0  0  0  0  0  0  0  0  0
   16.5586   18.4180   23.9203 C   0  0  0  0  0  0  0  0  0  0  0  0
   16.1453   17.6937   23.2061 H   0  0  0  0  0  0  0  0  0  0  0  0
   15.7302   19.0304   24.2996 H   0  0  0  0  0  0  0  0  0  0  0  0
   16.9837   17.8615   24.7658 H   0  0  0  0  0  0  0  0  0  0  0  0
  1  2  1  0  0  0  0
  1  3  2  0  0  0  0
  1  4  1  0  0  0  0
  4  5  1  0  0  0  0
  4  6  1  0  0  0  0
  4  7  1  0  0  0  0
  7  8  1  0  0  0  0
  7  9  1  0  0  0  0
  7 10  1  0  0  0  0
 10 11  1  0  0  0  0
 10 12  1  0  0  0  0
 10 13  1  0  0  0  0
 13 14  1  0  0  0  0
 13 15  1  0  0  0  0
 13 16  1  0  0  0  0
 16 17  1  0  0  0  0
 16 18  1  0  0  0  0
 16 19  1  0  0  0  0
 19 20  1  0  0  0  0
 19 21  1  0  0  0  0
 19 22  1  0  0  0  0
M  END
> <VConfSearch Rank>
270

> <Conf_Id>
44

> <Delta U+W>
-0.155

> <U+W>
-53.314

> <U>
7.937

> <W>
-61.252

> <W(PB)>
-63.556

> <W(SA)>
2.304

> <Valence>
7.358

> <Coulomb>
-0.021

> <VdW>
0.600

> <VdW6>
-7.363

> <VdW12>
7.964

> <Bond>
0.121

> <Angle>
2.425

> <Pdih>
4.811

> <Idih>
0.001

> <Tether>
0.000

$$$$
VeraChem MOL file


 22 21  0  0  0  0  0  0  0  0999 V2000     
   22.9230   19.6902   20.9054 C   0  0  0  0  0  0  0  0  0  0  0  0
   22.8646   20.5690   20.0680 O   0  5  0  0  0  0  0  0  0  0  0  0
   23.4699   18.6208   20.7205 O   0  0  0  0  0  0  0  0  0  0  0  0
   22.2910   19.9535   22.2694 C   0  0  0  0  0  0  0  0  0  0  0  0
   22.6041   20.9551   22.5869 H   0  0  0  0  0  0  0  0  0  0  0  0
   22.7118   19.2451   22.9934 H   0  0  0  0  0  0  0  0  0  0  0  0
   20.7423   19.8692   22.2760 C   0  0  0  0  0  0  0  0  0  0  0  0
   20.3795   20.2224   23.2495 H   0  0  0  0  0  0  0  0  0  0  0  0
   20.3375   20.5543   21.5183 H   0  0  0  0  0  0  0  0  0  0  0  0
   20.2247   18.4340   22.0160 C   0  0  0  0  0  0  0  0  0  0  0  0
   20.5962   17.7584   22.7986 H   0  0  0  0  0  0  0  0  0  0  0  0
   20.6410   18.0670   21.0679 H   0  0  0  0  0  0  0  0  0  0  0  0
   18.6823   18.3393   21.9384 C   0  0  0  0  0  0  0  0  0  0  0  0
   18.3113   19.0152   21.1558 H   0  0  0  0  0  0  0  0  0  0  0  0
   18.4123   17.3221   21.6234 H   0  0  0  0  0  0  0  0  0  0  0  0
   17.9758   18.6532   23.2766 C   0  0  0  0  0  0  0  0  0  0  0  0
   18.1666   19.6935   23.5707 H   0  0  0  0  0  0  0  0  0  0  0  0
   18.3859   18.0145   24.0709 H   0  0  0  0  0  0  0  0  0  0  0  0
   16.4530   18.4322   23.1771 C   0  0  0  0  0  0  0  0  0  0  0  0
   16.0121   19.0793   22.4075 H   0  0  0  0  0  0  0  0  0  0  0  0
   15.9655   18.6622   24.1334 H   0  0  0  0  0  0  0  0  0  0  0  0
   16.2227   17.3896   22.9218 H   0  0  0  0  0  0  0  0  0  0  0  0
  1  2  1  0  0  0  0
  1  3  2  0  0  0  0
  1  4  1  0  0  0  0
  4  5  1  0  0  0  0
  4  6  1  0  0  0  0
  4  7  1  0  0  0  0
  7  8  1  0  0  0  0
  7  9  1  0  0  0  0
  7 10  1  0  0  0  0
 10 11  1  0  0  0  0
 10 12  1  0  0  0  0
 10 13  1  0  0  0  0
 13 14  1  0  0  0  0
 13 15  1  0  0  0  0
 13 16  1  0  0  0  0
 16 17  1  0  0  0  0
 16 18  1  0  0  0  0
 16 19  1  0  0  0  0
 19 20  1  0  0  0  0
 19 21  1  0  0  0  0
 19 22  1  0  0  0  0
M  END
> <VConfSearch Rank>
271

> <Conf_Id>
53

> <Delta U+W>
0.723

> <U+W>
-52.436

> <U>
8.587

> <W>
-61.022

> <W(PB)>
-63.285

> <W(SA)>
2.263

> <Valence>
7.933

> <Coulomb>
-0.124

> <VdW>
0.778

> <VdW6>
-7.981

> <VdW12>
8.759

> <Bond>
0.160

> <Angle>
2.698

> <Pdih>
5.074

> <Idih>
0.001

> <Tether>
0.000

$$$$
VeraChem MOL file


 22 21  0  0  0  0  0  0  0  0999 V2000     
   19.7270   22.2921   22.8535 C   0  0  0  0  0  0  0  0  0  0  0  0
   20.5979   22.8048   22.1789 O   0  5  0  0  0  0  0  0  0  0  0  0
   18.9394   22.9246   23.5289 O   0  0  0  0  0  0  0  0  0  0  0  0
   19.6011   20.7729   22.8344 C   0  0  0  0  0  0  0  0  0  0  0  0
   19.2175   20.4502   23.8095 H   0  0  0  0  0  0  0  0  0  0  0  0
   20.6092   20.3585   22.7219 H   0  0  0  0  0  0  0  0  0  0  0  0
   18.6788   20.2614   21.6991 C   0  0  0  0  0  0  0  0  0  0  0  0
   17.7208   20.7965   21.7559 H   0  0  0  0  0  0  0  0  0  0  0  0
   19.1208   20.5249   20.7283 H   0  0  0  0  0  0  0  0  0  0  0  0
   18.3945   18.7389   21.7442 C   0  0  0  0  0  0  0  0  0  0  0  0
   17.6978   18.5085   20.9266 H   0  0  0  0  0  0  0  0  0  0  0  0
   17.8627   18.4816   22.6704 H   0  0  0  0  0  0  0  0  0  0  0  0
   19.6477   17.8427   21.5770 C   0  0  0  0  0  0  0  0  0  0  0  0
   19.3662   16.9564   20.9921 H   0  0  0  0  0  0  0  0  0  0  0  0
   20.4114   18.3679   20.9871 H   0  0  0  0  0  0  0  0  0  0  0  0
   20.2415   17.3622   22.9213 C   0  0  0  0  0  0  0  0  0  0  0  0
   19.4837   16.7898   23.4740 H   0  0  0  0  0  0  0  0  0  0  0  0
   20.5106   18.2174   23.5526 H   0  0  0  0  0  0  0  0  0  0  0  0
   21.4877   16.4803   22.7058 C   0  0  0  0  0  0  0  0  0  0  0  0
   21.2422   15.5916   22.1097 H   0  0  0  0  0  0  0  0  0  0  0  0
   21.8931   16.1416   23.6681 H   0  0  0  0  0  0  0  0  0  0  0  0
   22.2764   17.0370   22.1828 H   0  0  0  0  0  0  0  0  0  0  0  0
  1  2  1  0  0  0  0
  1  3  2  0  0  0  0
  1  4  1  0  0  0  0
  4  5  1  0  0  0  0
  4  6  1  0  0  0  0
  4  7  1  0  0  0  0
  7  8  1  0  0  0  0
  7  9  1  0  0  0  0
  7 10  1  0  0  0  0
 10 11  1  0  0  0  0
 10 12  1  0  0  0  0
 10 13  1  0  0  0  0
 13 14  1  0  0  0  0
 13 15  1  0  0  0  0
 13 16  1  0  0  0  0
 16 17  1  0  0  0  0
 16 18  1  0  0  0  0
 16 19  1  0  0  0  0
 19 20  1  0  0  0  0
 19 21  1  0  0  0  0
 19 22  1  0  0  0  0
M  END
> <VConfSearch Rank>
272

> <Conf_Id>
5

> <Delta U+W>
2.167

> <U+W>
-50.993

> <U>
10.045

> <W>
-61.037

> <W(PB)>
-63.303

> <W(SA)>
2.266

> <Valence>
10.100

> <Coulomb>
-0.883

> <VdW>
0.828

> <VdW6>
-8.177

> <VdW12>
9.005

> <Bond>
0.182

> <Angle>
2.988

> <Pdih>
6.930

> <Idih>
0.001

> <Tether>
0.000

$$$$
VeraChem MOL file


 22 21  0  0  0  0  0  0  0  0999 V2000     
   19.6532   22.2295   22.0826 C   0  0  0  0  0  0  0  0  0  0  0  0
   18.5077   22.5695   22.3031 O   0  5  0  0  0  0  0  0  0  0  0  0
   20.5299   22.9995   21.7432 O   0  0  0  0  0  0  0  0  0  0  0  0
   20.0049   20.7522   22.2168 C   0  0  0  0  0  0  0  0  0  0  0  0
   19.3899   20.3374   23.0232 H   0  0  0  0  0  0  0  0  0  0  0  0
   21.0535   20.6783   22.5286 H   0  0  0  0  0  0  0  0  0  0  0  0
   19.7784   19.9597   20.9046 C   0  0  0  0  0  0  0  0  0  0  0  0
   18.7093   19.9782   20.6515 H   0  0  0  0  0  0  0  0  0  0  0  0
   20.2969   20.4782   20.0863 H   0  0  0  0  0  0  0  0  0  0  0  0
   20.2760   18.4931   20.9502 C   0  0  0  0  0  0  0  0  0  0  0  0
   21.3634   18.4681   21.1048 H   0  0  0  0  0  0  0  0  0  0  0  0
   20.1059   18.0554   19.9570 H   0  0  0  0  0  0  0  0  0  0  0  0
   19.5633   17.6016   21.9986 C   0  0  0  0  0  0  0  0  0  0  0  0
   18.5457   17.9733   22.1809 H   0  0  0  0  0  0  0  0  0  0  0  0
   19.4492   16.5931   21.5779 H   0  0  0  0  0  0  0  0  0  0  0  0
   20.3397   17.4814   23.3303 C   0  0  0  0  0  0  0  0  0  0  0  0
   20.5031   18.4712   23.7730 H   0  0  0  0  0  0  0  0  0  0  0  0
   21.3339   17.0547   23.1388 H   0  0  0  0  0  0  0  0  0  0  0  0
   19.5909   16.5916   24.3427 C   0  0  0  0  0  0  0  0  0  0  0  0
   18.6042   17.0110   24.5789 H   0  0  0  0  0  0  0  0  0  0  0  0
   20.1576   16.5102   25.2794 H   0  0  0  0  0  0  0  0  0  0  0  0
   19.4468   15.5786   23.9447 H   0  0  0  0  0  0  0  0  0  0  0  0
  1  2  1  0  0  0  0
  1  3  2  0  0  0  0
  1  4  1  0  0  0  0
  4  5  1  0  0  0  0
  4  6  1  0  0  0  0
  4  7  1  0  0  0  0
  7  8  1  0  0  0  0
  7  9  1  0  0  0  0
  7 10  1  0  0  0  0
 10 11  1  0  0  0  0
 10 12  1  0  0  0  0
 10 13  1  0  0  0  0
 13 14  1  0  0  0  0
 13 15  1  0  0  0  0
 13 16  1  0  0  0  0
 16 17  1  0  0  0  0
 16 18  1  0  0  0  0
 16 19  1  0  0  0  0
 19 20  1  0  0  0  0
 19 21  1  0  0  0  0
 19 22  1  0  0  0  0
M  END
> <VConfSearch Rank>
273

> <Conf_Id>
6

> <Delta U+W>
2.118

> <U+W>
-51.042

> <U>
10.045

> <W>
-61.086

> <W(PB)>
-63.356

> <W(SA)>
2.270

> <Valence>
10.100

> <Coulomb>
-0.883

> <VdW>
0.828

> <VdW6>
-8.177

> <VdW12>
9.004

> <Bond>
0.182

> <Angle>
2.988

> <Pdih>
6.930

> <Idih>
0.001

> <Tether>
0.000

$$$$
VeraChem MOL file


 22 21  0  0  0  0  0  0  0  0999 V2000     
   21.3579   18.3392   24.6007 C   0  0  0  0  0  0  0  0  0  0  0  0
   21.1889   17.1596   24.8406 O   0  5  0  0  0  0  0  0  0  0  0  0
   21.0233   19.2312   25.3552 O   0  0  0  0  0  0  0  0  0  0  0  0
   22.0925   18.7200   23.3166 C   0  0  0  0  0  0  0  0  0  0  0  0
   23.1018   18.3014   23.4034 H   0  0  0  0  0  0  0  0  0  0  0  0
   22.2070   19.8102   23.2813 H   0  0  0  0  0  0  0  0  0  0  0  0
   21.4425   18.2040   22.0020 C   0  0  0  0  0  0  0  0  0  0  0  0
   22.2125   18.2086   21.2187 H   0  0  0  0  0  0  0  0  0  0  0  0
   21.1390   17.1546   22.1209 H   0  0  0  0  0  0  0  0  0  0  0  0
   20.2476   19.0481   21.4932 C   0  0  0  0  0  0  0  0  0  0  0  0
   19.9751   18.6862   20.4924 H   0  0  0  0  0  0  0  0  0  0  0  0
   20.5602   20.0938   21.3687 H   0  0  0  0  0  0  0  0  0  0  0  0
   18.9987   18.9839   22.4012 C   0  0  0  0  0  0  0  0  0  0  0  0
   18.7472   17.9348   22.6094 H   0  0  0  0  0  0  0  0  0  0  0  0
   19.2138   19.4604   23.3659 H   0  0  0  0  0  0  0  0  0  0  0  0
   17.7867   19.6876   21.7548 C   0  0  0  0  0  0  0  0  0  0  0  0
   17.5534   19.2149   20.7907 H   0  0  0  0  0  0  0  0  0  0  0  0
   18.0372   20.7366   21.5443 H   0  0  0  0  0  0  0  0  0  0  0  0
   16.5444   19.6304   22.6663 C   0  0  0  0  0  0  0  0  0  0  0  0
   16.2529   18.5913   22.8677 H   0  0  0  0  0  0  0  0  0  0  0  0
   15.6929   20.1359   22.1924 H   0  0  0  0  0  0  0  0  0  0  0  0
   16.7399   20.1238   23.6274 H   0  0  0  0  0  0  0  0  0  0  0  0
  1  2  1  0  0  0  0
  1  3  2  0  0  0  0
  1  4  1  0  0  0  0
  4  5  1  0  0  0  0
  4  6  1  0  0  0  0
  4  7  1  0  0  0  0
  7  8  1  0  0  0  0
  7  9  1  0  0  0  0
  7 10  1  0  0  0  0
 10 11  1  0  0  0  0
 10 12  1  0  0  0  0
 10 13  1  0  0  0  0
 13 14  1  0  0  0  0
 13 15  1  0  0  0  0
 13 16  1  0  0  0  0
 16 17  1  0  0  0  0
 16 18  1  0  0  0  0
 16 19  1  0  0  0  0
 19 20  1  0  0  0  0
 19 21  1  0  0  0  0
 19 22  1  0  0  0  0
M  END
> <VConfSearch Rank>
274

> <Conf_Id>
8

> <Delta U+W>
1.886

> <U+W>
-51.274

> <U>
11.237

> <W>
-62.510

> <W(PB)>
-64.777

> <W(SA)>
2.267

> <Valence>
9.029

> <Coulomb>
1.667

> <VdW>
0.540

> <VdW6>
-8.825

> <VdW12>
9.365

> <Bond>
0.186

> <Angle>
3.195

> <Pdih>
5.642

> <Idih>
0.007

> <Tether>
0.000

$$$$
VeraChem MOL file


 22 21  0  0  0  0  0  0  0  0999 V2000     
   21.1167   18.4095   19.7681 C   0  0  0  0  0  0  0  0  0  0  0  0
   20.5622   17.3305   19.6968 O   0  5  0  0  0  0  0  0  0  0  0  0
   22.3035   18.5701   19.5610 O   0  0  0  0  0  0  0  0  0  0  0  0
   20.2735   19.6357   20.1066 C   0  0  0  0  0  0  0  0  0  0  0  0
   19.2151   19.3787   19.9860 H   0  0  0  0  0  0  0  0  0  0  0  0
   20.4935   20.4001   19.3522 H   0  0  0  0  0  0  0  0  0  0  0  0
   20.5402   20.2199   21.5210 C   0  0  0  0  0  0  0  0  0  0  0  0
   21.5903   20.5386   21.5763 H   0  0  0  0  0  0  0  0  0  0  0  0
   19.9364   21.1274   21.6560 H   0  0  0  0  0  0  0  0  0  0  0  0
   20.2566   19.2410   22.6872 C   0  0  0  0  0  0  0  0  0  0  0  0
   20.5691   19.7267   23.6202 H   0  0  0  0  0  0  0  0  0  0  0  0
   20.8827   18.3447   22.5798 H   0  0  0  0  0  0  0  0  0  0  0  0
   18.7690   18.8252   22.7949 C   0  0  0  0  0  0  0  0  0  0  0  0
   18.1378   19.7198   22.8826 H   0  0  0  0  0  0  0  0  0  0  0  0
   18.4670   18.3173   21.8698 H   0  0  0  0  0  0  0  0  0  0  0  0
   18.4821   17.8707   23.9775 C   0  0  0  0  0  0  0  0  0  0  0  0
   19.1236   16.9819   23.9004 H   0  0  0  0  0  0  0  0  0  0  0  0
   17.4464   17.5131   23.8966 H   0  0  0  0  0  0  0  0  0  0  0  0
   18.6706   18.5314   25.3605 C   0  0  0  0  0  0  0  0  0  0  0  0
   19.7197   18.7973   25.5393 H   0  0  0  0  0  0  0  0  0  0  0  0
   18.3624   17.8439   26.1588 H   0  0  0  0  0  0  0  0  0  0  0  0
   18.0642   19.4424   25.4466 H   0  0  0  0  0  0  0  0  0  0  0  0
  1  2  1  0  0  0  0
  1  3  2  0  0  0  0
  1  4  1  0  0  0  0
  4  5  1  0  0  0  0
  4  6  1  0  0  0  0
  4  7  1  0  0  0  0
  7  8  1  0  0  0  0
  7  9  1  0  0  0  0
  7 10  1  0  0  0  0
 10 11  1  0  0  0  0
 10 12  1  0  0  0  0
 10 13  1  0  0  0  0
 13 14  1  0  0  0  0
 13 15  1  0  0  0  0
 13 16  1  0  0  0  0
 16 17  1  0  0  0  0
 16 18  1  0  0  0  0
 16 19  1  0  0  0  0
 19 20  1  0  0  0  0
 19 21  1  0  0  0  0
 19 22  1  0  0  0  0
M  END
> <VConfSearch Rank>
275

> <Conf_Id>
93

> <Delta U+W>
1.836

> <U+W>
-51.323

> <U>
10.427

> <W>
-61.751

> <W(PB)>
-63.980

> <W(SA)>
2.230

> <Valence>
8.446

> <Coulomb>
1.306

> <VdW>
0.676

> <VdW6>
-8.928

> <VdW12>
9.604

> <Bond>
0.209

> <Angle>
3.066

> <Pdih>
5.170

> <Idih>
0.001

> <Tether>
0.000

$$$$
VeraChem MOL file


 22 21  0  0  0  0  0  0  0  0999 V2000     
   22.7281   19.7756   22.3056 C   0  0  0  0  0  0  0  0  0  0  0  0
   23.3672   19.9294   21.2833 O   0  5  0  0  0  0  0  0  0  0  0  0
   22.9492   18.8916   23.1097 O   0  0  0  0  0  0  0  0  0  0  0  0
   21.6069   20.7657   22.6086 C   0  0  0  0  0  0  0  0  0  0  0  0
   22.0224   21.7734   22.4916 H   0  0  0  0  0  0  0  0  0  0  0  0
   21.3270   20.6678   23.6634 H   0  0  0  0  0  0  0  0  0  0  0  0
   20.3614   20.6154   21.6924 C   0  0  0  0  0  0  0  0  0  0  0  0
   19.6339   21.3997   21.9416 H   0  0  0  0  0  0  0  0  0  0  0  0
   20.6667   20.7987   20.6529 H   0  0  0  0  0  0  0  0  0  0  0  0
   19.6671   19.2332   21.7695 C   0  0  0  0  0  0  0  0  0  0  0  0
   20.3780   18.4447   21.4871 H   0  0  0  0  0  0  0  0  0  0  0  0
   18.8683   19.2134   21.0174 H   0  0  0  0  0  0  0  0  0  0  0  0
   19.0711   18.9197   23.1638 C   0  0  0  0  0  0  0  0  0  0  0  0
   19.8766   18.9153   23.9094 H   0  0  0  0  0  0  0  0  0  0  0  0
   18.3744   19.7161   23.4585 H   0  0  0  0  0  0  0  0  0  0  0  0
   18.3526   17.5517   23.2312 C   0  0  0  0  0  0  0  0  0  0  0  0
   18.0896   17.3446   24.2776 H   0  0  0  0  0  0  0  0  0  0  0  0
   19.0430   16.7549   22.9217 H   0  0  0  0  0  0  0  0  0  0  0  0
   17.0678   17.4894   22.3767 C   0  0  0  0  0  0  0  0  0  0  0  0
   17.2928   17.5695   21.3060 H   0  0  0  0  0  0  0  0  0  0  0  0
   16.3773   18.2993   22.6458 H   0  0  0  0  0  0  0  0  0  0  0  0
   16.5479   16.5358   22.5355 H   0  0  0  0  0  0  0  0  0  0  0  0
  1  2  1  0  0  0  0
  1  3  2  0  0  0  0
  1  4  1  0  0  0  0
  4  5  1  0  0  0  0
  4  6  1  0  0  0  0
  4  7  1  0  0  0  0
  7  8  1  0  0  0  0
  7  9  1  0  0  0  0
  7 10  1  0  0  0  0
 10 11  1  0  0  0  0
 10 12  1  0  0  0  0
 10 13  1  0  0  0  0
 13 14  1  0  0  0  0
 13 15  1  0  0  0  0
 13 16  1  0  0  0  0
 16 17  1  0  0  0  0
 16 18  1  0  0  0  0
 16 19  1  0  0  0  0
 19 20  1  0  0  0  0
 19 21  1  0  0  0  0
 19 22  1  0  0  0  0
M  END
> <VConfSearch Rank>
276

> <Conf_Id>
70

> <Delta U+W>
1.803

> <U+W>
-51.356

> <U>
10.428

> <W>
-61.784

> <W(PB)>
-64.014

> <W(SA)>
2.230

> <Valence>
8.445

> <Coulomb>
1.306

> <VdW>
0.676

> <VdW6>
-8.929

> <VdW12>
9.605

> <Bond>
0.209

> <Angle>
3.066

> <Pdih>
5.170

> <Idih>
0.001

> <Tether>
0.000

$$$$
VeraChem MOL file


 22 21  0  0  0  0  0  0  0  0999 V2000     
   18.9749   17.8267   19.3626 C   0  0  0  0  0  0  0  0  0  0  0  0
   19.9416   18.1347   18.6935 O   0  5  0  0  0  0  0  0  0  0  0  0
   17.8357   18.1457   19.0848 O   0  0  0  0  0  0  0  0  0  0  0  0
   19.2044   16.9749   20.6080 C   0  0  0  0  0  0  0  0  0  0  0  0
   19.8987   16.1720   20.3334 H   0  0  0  0  0  0  0  0  0  0  0  0
   18.2574   16.4951   20.8834 H   0  0  0  0  0  0  0  0  0  0  0  0
   19.7765   17.7644   21.8140 C   0  0  0  0  0  0  0  0  0  0  0  0
   20.0318   17.0572   22.6146 H   0  0  0  0  0  0  0  0  0  0  0  0
   20.7124   18.2507   21.5088 H   0  0  0  0  0  0  0  0  0  0  0  0
   18.7804   18.8156   22.3594 C   0  0  0  0  0  0  0  0  0  0  0  0
   17.8232   18.3217   22.5757 H   0  0  0  0  0  0  0  0  0  0  0  0
   18.5720   19.5685   21.5867 H   0  0  0  0  0  0  0  0  0  0  0  0
   19.2715   19.5202   23.6462 C   0  0  0  0  0  0  0  0  0  0  0  0
   18.4584   20.1523   24.0286 H   0  0  0  0  0  0  0  0  0  0  0  0
   19.4730   18.7700   24.4230 H   0  0  0  0  0  0  0  0  0  0  0  0
   20.5266   20.3950   23.4282 C   0  0  0  0  0  0  0  0  0  0  0  0
   20.3428   21.1105   22.6149 H   0  0  0  0  0  0  0  0  0  0  0  0
   21.3746   19.7698   23.1195 H   0  0  0  0  0  0  0  0  0  0  0  0
   20.9100   21.1630   24.7092 C   0  0  0  0  0  0  0  0  0  0  0  0
   20.0972   21.8295   25.0263 H   0  0  0  0  0  0  0  0  0  0  0  0
   21.8042   21.7766   24.5391 H   0  0  0  0  0  0  0  0  0  0  0  0
   21.1261   20.4697   25.5325 H   0  0  0  0  0  0  0  0  0  0  0  0
  1  2  1  0  0  0  0
  1  3  2  0  0  0  0
  1  4  1  0  0  0  0
  4  5  1  0  0  0  0
  4  6  1  0  0  0  0
  4  7  1  0  0  0  0
  7  8  1  0  0  0  0
  7  9  1  0  0  0  0
  7 10  1  0  0  0  0
 10 11  1  0  0  0  0
 10 12  1  0  0  0  0
 10 13  1  0  0  0  0
 13 14  1  0  0  0  0
 13 15  1  0  0  0  0
 13 16  1  0  0  0  0
 16 17  1  0  0  0  0
 16 18  1  0  0  0  0
 16 19  1  0  0  0  0
 19 20  1  0  0  0  0
 19 21  1  0  0  0  0
 19 22  1  0  0  0  0
M  END
> <VConfSearch Rank>
277

> <Conf_Id>
85

> <Delta U+W>
0.707

> <U+W>
-52.452

> <U>
8.925

> <W>
-61.378

> <W(PB)>
-63.661

> <W(SA)>
2.283

> <Valence>
7.881

> <Coulomb>
0.349

> <VdW>
0.695

> <VdW6>
-8.049

> <VdW12>
8.743

> <Bond>
0.156

> <Angle>
2.660

> <Pdih>
5.064

> <Idih>
0.001

> <Tether>
0.000

$$$$
VeraChem MOL file


 22 21  0  0  0  0  0  0  0  0999 V2000     
   20.0602   19.8737   19.2033 C   0  0  0  0  0  0  0  0  0  0  0  0
   21.2080   20.0261   18.8345 O   0  5  0  0  0  0  0  0  0  0  0  0
   19.2229   19.2695   18.5623 O   0  0  0  0  0  0  0  0  0  0  0  0
   19.6390   20.4939   20.5328 C   0  0  0  0  0  0  0  0  0  0  0  0
   18.6834   21.0051   20.3665 H   0  0  0  0  0  0  0  0  0  0  0  0
   20.3684   21.2657   20.8068 H   0  0  0  0  0  0  0  0  0  0  0  0
   19.4832   19.4702   21.6876 C   0  0  0  0  0  0  0  0  0  0  0  0
   19.0311   19.9835   22.5455 H   0  0  0  0  0  0  0  0  0  0  0  0
   18.7862   18.6779   21.3817 H   0  0  0  0  0  0  0  0  0  0  0  0
   20.8320   18.8478   22.1171 C   0  0  0  0  0  0  0  0  0  0  0  0
   21.4920   19.6372   22.5019 H   0  0  0  0  0  0  0  0  0  0  0  0
   21.3349   18.4317   21.2335 H   0  0  0  0  0  0  0  0  0  0  0  0
   20.7053   17.7216   23.1736 C   0  0  0  0  0  0  0  0  0  0  0  0
   20.1234   16.8848   22.7638 H   0  0  0  0  0  0  0  0  0  0  0  0
   21.7133   17.3236   23.3536 H   0  0  0  0  0  0  0  0  0  0  0  0
   20.1150   18.1708   24.5337 C   0  0  0  0  0  0  0  0  0  0  0  0
   20.3274   19.2345   24.7089 H   0  0  0  0  0  0  0  0  0  0  0  0
   20.6257   17.6214   25.3366 H   0  0  0  0  0  0  0  0  0  0  0  0
   18.5993   17.8989   24.6592 C   0  0  0  0  0  0  0  0  0  0  0  0
   18.0240   18.4314   23.8935 H   0  0  0  0  0  0  0  0  0  0  0  0
   18.2312   18.2232   25.6411 H   0  0  0  0  0  0  0  0  0  0  0  0
   18.3858   16.8269   24.5582 H   0  0  0  0  0  0  0  0  0  0  0  0
  1  2  1  0  0  0  0
  1  3  2  0  0  0  0
  1  4  1  0  0  0  0
  4  5  1  0  0  0  0
  4  6  1  0  0  0  0
  4  7  1  0  0  0  0
  7  8  1  0  0  0  0
  7  9  1  0  0  0  0
  7 10  1  0  0  0  0
 10 11  1  0  0  0  0
 10 12  1  0  0  0  0
 10 13  1  0  0  0  0
 13 14  1  0  0  0  0
 13 15  1  0  0  0  0
 13 16  1  0  0  0  0
 16 17  1  0  0  0  0
 16 18  1  0  0  0  0
 16 19  1  0  0  0  0
 19 20  1  0  0  0  0
 19 21  1  0  0  0  0
 19 22  1  0  0  0  0
M  END
> <VConfSearch Rank>
278

> <Conf_Id>
82

> <Delta U+W>
3.438

> <U+W>
-49.721

> <U>
11.773

> <W>
-61.495

> <W(PB)>
-63.749

> <W(SA)>
2.254

> <Valence>
10.419

> <Coulomb>
0.565

> <VdW>
0.789

> <VdW6>
-8.847

> <VdW12>
9.636

> <Bond>
0.200

> <Angle>
3.187

> <Pdih>
7.032

> <Idih>
0.001

> <Tether>
0.000

$$$$
VeraChem MOL file


 22 21  0  0  0  0  0  0  0  0999 V2000     
   18.3977   20.4806   24.8925 C   0  0  0  0  0  0  0  0  0  0  0  0
   17.2434   20.1025   24.9336 O   0  5  0  0  0  0  0  0  0  0  0  0
   19.1057   20.5859   25.8746 O   0  0  0  0  0  0  0  0  0  0  0  0
   18.9806   20.8658   23.5356 C   0  0  0  0  0  0  0  0  0  0  0  0
   19.8671   21.4905   23.6990 H   0  0  0  0  0  0  0  0  0  0  0  0
   18.2390   21.4937   23.0279 H   0  0  0  0  0  0  0  0  0  0  0  0
   19.3373   19.6556   22.6334 C   0  0  0  0  0  0  0  0  0  0  0  0
   18.4531   19.0138   22.5169 H   0  0  0  0  0  0  0  0  0  0  0  0
   19.5954   20.0326   21.6359 H   0  0  0  0  0  0  0  0  0  0  0  0
   20.5193   18.8275   23.1885 C   0  0  0  0  0  0  0  0  0  0  0  0
   20.3052   18.5451   24.2283 H   0  0  0  0  0  0  0  0  0  0  0  0
   21.4207   19.4546   23.2208 H   0  0  0  0  0  0  0  0  0  0  0  0
   20.8200   17.5338   22.3907 C   0  0  0  0  0  0  0  0  0  0  0  0
   21.6334   17.0082   22.9094 H   0  0  0  0  0  0  0  0  0  0  0  0
   19.9552   16.8574   22.4306 H   0  0  0  0  0  0  0  0  0  0  0  0
   21.2547   17.7632   20.9216 C   0  0  0  0  0  0  0  0  0  0  0  0
   22.0184   17.0174   20.6610 H   0  0  0  0  0  0  0  0  0  0  0  0
   21.7377   18.7444   20.8157 H   0  0  0  0  0  0  0  0  0  0  0  0
   20.0915   17.6267   19.9140 C   0  0  0  0  0  0  0  0  0  0  0  0
   19.6499   16.6228   19.9619 H   0  0  0  0  0  0  0  0  0  0  0  0
   20.4507   17.7865   18.8892 H   0  0  0  0  0  0  0  0  0  0  0  0
   19.2960   18.3552   20.1072 H   0  0  0  0  0  0  0  0  0  0  0  0
  1  2  1  0  0  0  0
  1  3  2  0  0  0  0
  1  4  1  0  0  0  0
  4  5  1  0  0  0  0
  4  6  1  0  0  0  0
  4  7  1  0  0  0  0
  7  8  1  0  0  0  0
  7  9  1  0  0  0  0
  7 10  1  0  0  0  0
 10 11  1  0  0  0  0
 10 12  1  0  0  0  0
 10 13  1  0  0  0  0
 13 14  1  0  0  0  0
 13 15  1  0  0  0  0
 13 16  1  0  0  0  0
 16 17  1  0  0  0  0
 16 18  1  0  0  0  0
 16 19  1  0  0  0  0
 19 20  1  0  0  0  0
 19 21  1  0  0  0  0
 19 22  1  0  0  0  0
M  END
> <VConfSearch Rank>
279

> <Conf_Id>
94

> <Delta U+W>
3.471

> <U+W>
-49.688

> <U>
11.773

> <W>
-61.461

> <W(PB)>
-63.710

> <W(SA)>
2.248

> <Valence>
10.419

> <Coulomb>
0.566

> <VdW>
0.789

> <VdW6>
-8.847

> <VdW12>
9.636

> <Bond>
0.200

> <Angle>
3.187

> <Pdih>
7.032

> <Idih>
0.001

> <Tether>
0.000

$$$$
VeraChem MOL file


 22 21  0  0  0  0  0  0  0  0999 V2000     
   21.3519   20.5814   19.8287 C   0  0  0  0  0  0  0  0  0  0  0  0
   21.9462   20.1450   18.8627 O   0  5  0  0  0  0  0  0  0  0  0  0
   21.6005   21.6538   20.3431 O   0  0  0  0  0  0  0  0  0  0  0  0
   20.2470   19.7275   20.4401 C   0  0  0  0  0  0  0  0  0  0  0  0
   19.7706   19.1575   19.6336 H   0  0  0  0  0  0  0  0  0  0  0  0
   19.4903   20.4053   20.8512 H   0  0  0  0  0  0  0  0  0  0  0  0
   20.7699   18.7657   21.5382 C   0  0  0  0  0  0  0  0  0  0  0  0
   21.5823   18.1576   21.1172 H   0  0  0  0  0  0  0  0  0  0  0  0
   21.2181   19.3482   22.3541 H   0  0  0  0  0  0  0  0  0  0  0  0
   19.6811   17.8160   22.0978 C   0  0  0  0  0  0  0  0  0  0  0  0
   20.1427   17.1370   22.8268 H   0  0  0  0  0  0  0  0  0  0  0  0
   19.3178   17.1747   21.2834 H   0  0  0  0  0  0  0  0  0  0  0  0
   18.4640   18.5202   22.7534 C   0  0  0  0  0  0  0  0  0  0  0  0
   17.9055   19.0711   21.9854 H   0  0  0  0  0  0  0  0  0  0  0  0
   17.7743   17.7511   23.1267 H   0  0  0  0  0  0  0  0  0  0  0  0
   18.8080   19.4865   23.9135 C   0  0  0  0  0  0  0  0  0  0  0  0
   17.8770   19.9420   24.2777 H   0  0  0  0  0  0  0  0  0  0  0  0
   19.4274   20.3149   23.5446 H   0  0  0  0  0  0  0  0  0  0  0  0
   19.5170   18.7917   25.0961 C   0  0  0  0  0  0  0  0  0  0  0  0
   18.9218   17.9488   25.4704 H   0  0  0  0  0  0  0  0  0  0  0  0
   19.6639   19.4971   25.9241 H   0  0  0  0  0  0  0  0  0  0  0  0
   20.5040   18.4131   24.8020 H   0  0  0  0  0  0  0  0  0  0  0  0
  1  2  1  0  0  0  0
  1  3  2  0  0  0  0
  1  4  1  0  0  0  0
  4  5  1  0  0  0  0
  4  6  1  0  0  0  0
  4  7  1  0  0  0  0
  7  8  1  0  0  0  0
  7  9  1  0  0  0  0
  7 10  1  0  0  0  0
 10 11  1  0  0  0  0
 10 12  1  0  0  0  0
 10 13  1  0  0  0  0
 13 14  1  0  0  0  0
 13 15  1  0  0  0  0
 13 16  1  0  0  0  0
 16 17  1  0  0  0  0
 16 18  1  0  0  0  0
 16 19  1  0  0  0  0
 19 20  1  0  0  0  0
 19 21  1  0  0  0  0
 19 22  1  0  0  0  0
M  END
> <VConfSearch Rank>
280

> <Conf_Id>
56

> <Delta U+W>
0.853

> <U+W>
-52.307

> <U>
8.874

> <W>
-61.181

> <W(PB)>
-63.413

> <W(SA)>
2.232

> <Valence>
8.479

> <Coulomb>
-0.357

> <VdW>
0.753

> <VdW6>
-9.081

> <VdW12>
9.833

> <Bond>
0.221

> <Angle>
3.208

> <Pdih>
5.050

> <Idih>
0.000

> <Tether>
0.000

$$$$
VeraChem MOL file


 22 21  0  0  0  0  0  0  0  0999 V2000     
   20.2519   22.8844   23.0275 C   0  0  0  0  0  0  0  0  0  0  0  0
   20.9202   22.6595   24.0181 O   0  5  0  0  0  0  0  0  0  0  0  0
   19.9649   24.0068   22.6617 O   0  0  0  0  0  0  0  0  0  0  0  0
   19.7333   21.7205   22.1814 C   0  0  0  0  0  0  0  0  0  0  0  0
   20.1074   21.8658   21.1612 H   0  0  0  0  0  0  0  0  0  0  0  0
   18.6413   21.8086   22.1384 H   0  0  0  0  0  0  0  0  0  0  0  0
   20.1259   20.3070   22.6875 C   0  0  0  0  0  0  0  0  0  0  0  0
   21.2209   20.2276   22.7341 H   0  0  0  0  0  0  0  0  0  0  0  0
   19.7533   20.1702   23.7122 H   0  0  0  0  0  0  0  0  0  0  0  0
   19.5626   19.1941   21.7772 C   0  0  0  0  0  0  0  0  0  0  0  0
   19.9364   19.3329   20.7534 H   0  0  0  0  0  0  0  0  0  0  0  0
   18.4679   19.2756   21.7320 H   0  0  0  0  0  0  0  0  0  0  0  0
   19.9542   17.7889   22.2825 C   0  0  0  0  0  0  0  0  0  0  0  0
   21.0489   17.7069   22.3278 H   0  0  0  0  0  0  0  0  0  0  0  0
   19.5806   17.6496   23.3063 H   0  0  0  0  0  0  0  0  0  0  0  0
   19.3917   16.6763   21.3732 C   0  0  0  0  0  0  0  0  0  0  0  0
   19.7649   16.8111   20.3485 H   0  0  0  0  0  0  0  0  0  0  0  0
   18.2965   16.7539   21.3269 H   0  0  0  0  0  0  0  0  0  0  0  0
   19.7849   15.2746   21.8812 C   0  0  0  0  0  0  0  0  0  0  0  0
   20.8763   15.1583   21.9077 H   0  0  0  0  0  0  0  0  0  0  0  0
   19.3769   14.4962   21.2234 H   0  0  0  0  0  0  0  0  0  0  0  0
   19.3968   15.1006   22.8934 H   0  0  0  0  0  0  0  0  0  0  0  0
  1  2  1  0  0  0  0
  1  3  2  0  0  0  0
  1  4  1  0  0  0  0
  4  5  1  0  0  0  0
  4  6  1  0  0  0  0
  4  7  1  0  0  0  0
  7  8  1  0  0  0  0
  7  9  1  0  0  0  0
  7 10  1  0  0  0  0
 10 11  1  0  0  0  0
 10 12  1  0  0  0  0
 10 13  1  0  0  0  0
 13 14  1  0  0  0  0
 13 15  1  0  0  0  0
 13 16  1  0  0  0  0
 16 17  1  0  0  0  0
 16 18  1  0  0  0  0
 16 19  1  0  0  0  0
 19 20  1  0  0  0  0
 19 21  1  0  0  0  0
 19 22  1  0  0  0  0
M  END
> <VConfSearch Rank>
281

> <Conf_Id>
0

> <Delta U+W>
0.000

> <U+W>
-53.159

> <U>
6.763

> <W>
-59.922

> <W(PB)>
-62.256

> <W(SA)>
2.334

> <Valence>
7.600

> <Coulomb>
-2.139

> <VdW>
1.302

> <VdW6>
-6.786

> <VdW12>
8.088

> <Bond>
0.134

> <Angle>
2.720

> <Pdih>
4.746

> <Idih>
0.000

> <Tether>
0.000

$$$$
VeraChem MOL file


 22 21  0  0  0  0  0  0  0  0999 V2000     
   16.3967   17.9271   20.2949 C   0  0  0  0  0  0  0  0  0  0  0  0
   15.9326   16.8652   20.6602 O   0  5  0  0  0  0  0  0  0  0  0  0
   16.3000   18.3490   19.1595 O   0  0  0  0  0  0  0  0  0  0  0  0
   17.1620   18.7663   21.3120 C   0  0  0  0  0  0  0  0  0  0  0  0
   16.7117   18.6007   22.2981 H   0  0  0  0  0  0  0  0  0  0  0  0
   17.0142   19.8237   21.0615 H   0  0  0  0  0  0  0  0  0  0  0  0
   18.6737   18.4327   21.3517 C   0  0  0  0  0  0  0  0  0  0  0  0
   18.8041   17.3680   21.5908 H   0  0  0  0  0  0  0  0  0  0  0  0
   19.1066   18.5910   20.3542 H   0  0  0  0  0  0  0  0  0  0  0  0
   19.4256   19.2950   22.3885 C   0  0  0  0  0  0  0  0  0  0  0  0
   18.9896   19.1353   23.3842 H   0  0  0  0  0  0  0  0  0  0  0  0
   19.2921   20.3586   22.1473 H   0  0  0  0  0  0  0  0  0  0  0  0
   20.9322   18.9603   22.4258 C   0  0  0  0  0  0  0  0  0  0  0  0
   21.0661   17.8967   22.6669 H   0  0  0  0  0  0  0  0  0  0  0  0
   21.3686   19.1198   21.4302 H   0  0  0  0  0  0  0  0  0  0  0  0
   21.6844   19.8217   23.4617 C   0  0  0  0  0  0  0  0  0  0  0  0
   21.2520   19.6633   24.4594 H   0  0  0  0  0  0  0  0  0  0  0  0
   21.5544   20.8864   23.2227 H   0  0  0  0  0  0  0  0  0  0  0  0
   23.1885   19.4844   23.4960 C   0  0  0  0  0  0  0  0  0  0  0  0
   23.6537   19.6642   22.5179 H   0  0  0  0  0  0  0  0  0  0  0  0
   23.3490   18.4318   23.7637 H   0  0  0  0  0  0  0  0  0  0  0  0
   23.7075   20.1057   24.2374 H   0  0  0  0  0  0  0  0  0  0  0  0
  1  2  1  0  0  0  0
  1  3  2  0  0  0  0
  1  4  1  0  0  0  0
  4  5  1  0  0  0  0
  4  6  1  0  0  0  0
  4  7  1  0  0  0  0
  7  8  1  0  0  0  0
  7  9  1  0  0  0  0
  7 10  1  0  0  0  0
 10 11  1  0  0  0  0
 10 12  1  0  0  0  0
 10 13  1  0  0  0  0
 13 14  1  0  0  0  0
 13 15  1  0  0  0  0
 13 16  1  0  0  0  0
 16 17  1  0  0  0  0
 16 18  1  0  0  0  0
 16 19  1  0  0  0  0
 19 20  1  0  0  0  0
 19 21  1  0  0  0  0
 19 22  1  0  0  0  0
M  END
> <VConfSearch Rank>
282

> <Conf_Id>
10

> <Delta U+W>
-1.291

> <U+W>
-54.451

> <U>
5.779

> <W>
-60.230

> <W(PB)>
-62.557

> <W(SA)>
2.328

> <Valence>
7.101

> <Coulomb>
-2.079

> <VdW>
0.757

> <VdW6>
-6.496

> <VdW12>
7.253

> <Bond>
0.100

> <Angle>
2.262

> <Pdih>
4.738

> <Idih>
0.001

> <Tether>
0.000

$$$$
VeraChem MOL file


 22 21  0  0  0  0  0  0  0  0999 V2000     
   19.3410   15.4193   20.6448 C   0  0  0  0  0  0  0  0  0  0  0  0
   20.1093   15.1898   19.7318 O   0  5  0  0  0  0  0  0  0  0  0  0
   18.8393   14.5548   21.3356 O   0  0  0  0  0  0  0  0  0  0  0  0
   19.0045   16.8737   20.9542 C   0  0  0  0  0  0  0  0  0  0  0  0
   17.9762   16.9123   21.3335 H   0  0  0  0  0  0  0  0  0  0  0  0
   19.0239   17.4357   20.0126 H   0  0  0  0  0  0  0  0  0  0  0  0
   19.9759   17.5117   21.9775 C   0  0  0  0  0  0  0  0  0  0  0  0
   19.9545   16.9296   22.9093 H   0  0  0  0  0  0  0  0  0  0  0  0
   21.0021   17.4540   21.5887 H   0  0  0  0  0  0  0  0  0  0  0  0
   19.6140   18.9833   22.2736 C   0  0  0  0  0  0  0  0  0  0  0  0
   18.5886   19.0377   22.6641 H   0  0  0  0  0  0  0  0  0  0  0  0
   19.6315   19.5537   21.3358 H   0  0  0  0  0  0  0  0  0  0  0  0
   20.5889   19.6167   23.2928 C   0  0  0  0  0  0  0  0  0  0  0  0
   20.6129   18.9950   24.1983 H   0  0  0  0  0  0  0  0  0  0  0  0
   21.6084   19.6099   22.8836 H   0  0  0  0  0  0  0  0  0  0  0  0
   20.2039   21.0586   23.6976 C   0  0  0  0  0  0  0  0  0  0  0  0
   20.8722   21.3883   24.5051 H   0  0  0  0  0  0  0  0  0  0  0  0
   19.1868   21.0684   24.1133 H   0  0  0  0  0  0  0  0  0  0  0  0
   20.2983   22.0667   22.5319 C   0  0  0  0  0  0  0  0  0  0  0  0
   20.1027   23.0860   22.8893 H   0  0  0  0  0  0  0  0  0  0  0  0
   19.5636   21.8433   21.7483 H   0  0  0  0  0  0  0  0  0  0  0  0
   21.2989   22.0530   22.0805 H   0  0  0  0  0  0  0  0  0  0  0  0
  1  2  1  0  0  0  0
  1  3  2  0  0  0  0
  1  4  1  0  0  0  0
  4  5  1  0  0  0  0
  4  6  1  0  0  0  0
  4  7  1  0  0  0  0
  7  8  1  0  0  0  0
  7  9  1  0  0  0  0
  7 10  1  0  0  0  0
 10 11  1  0  0  0  0
 10 12  1  0  0  0  0
 10 13  1  0  0  0  0
 13 14  1  0  0  0  0
 13 15  1  0  0  0  0
 13 16  1  0  0  0  0
 16 17  1  0  0  0  0
 16 18  1  0  0  0  0
 16 19  1  0  0  0  0
 19 20  1  0  0  0  0
 19 21  1  0  0  0  0
 19 22  1  0  0  0  0
M  END
> <VConfSearch Rank>
283

> <Conf_Id>
37

> <Delta U+W>
-0.345

> <U+W>
-53.504

> <U>
6.751

> <W>
-60.255

> <W(PB)>
-62.592

> <W(SA)>
2.336

> <Valence>
7.602

> <Coulomb>
-1.744

> <VdW>
0.894

> <VdW6>
-7.110

> <VdW12>
8.004

> <Bond>
0.131

> <Angle>
2.489

> <Pdih>
4.982

> <Idih>
0.001

> <Tether>
0.000

$$$$
VeraChem MOL file


 22 21  0  0  0  0  0  0  0  0999 V2000     
   20.0773   15.1864   22.9220 C   0  0  0  0  0  0  0  0  0  0  0  0
   20.5954   14.9462   23.9946 O   0  5  0  0  0  0  0  0  0  0  0  0
   20.1105   14.4276   21.9736 O   0  0  0  0  0  0  0  0  0  0  0  0
   19.3646   16.5231   22.7500 C   0  0  0  0  0  0  0  0  0  0  0  0
   18.9317   16.8053   23.7172 H   0  0  0  0  0  0  0  0  0  0  0  0
   18.5314   16.3777   22.0519 H   0  0  0  0  0  0  0  0  0  0  0  0
   20.3024   17.6434   22.2369 C   0  0  0  0  0  0  0  0  0  0  0  0
   21.1376   17.7682   22.9401 H   0  0  0  0  0  0  0  0  0  0  0  0
   20.7379   17.3394   21.2749 H   0  0  0  0  0  0  0  0  0  0  0  0
   19.5574   18.9857   22.0710 C   0  0  0  0  0  0  0  0  0  0  0  0
   19.1205   19.2762   23.0353 H   0  0  0  0  0  0  0  0  0  0  0  0
   18.7246   18.8586   21.3659 H   0  0  0  0  0  0  0  0  0  0  0  0
   20.4987   20.1017   21.5623 C   0  0  0  0  0  0  0  0  0  0  0  0
   21.3048   20.2666   22.2903 H   0  0  0  0  0  0  0  0  0  0  0  0
   20.9815   19.7665   20.6341 H   0  0  0  0  0  0  0  0  0  0  0  0
   19.7730   21.4383   21.2830 C   0  0  0  0  0  0  0  0  0  0  0  0
   18.9700   21.2786   20.5502 H   0  0  0  0  0  0  0  0  0  0  0  0
   20.4839   22.1347   20.8172 H   0  0  0  0  0  0  0  0  0  0  0  0
   19.1932   22.0964   22.5538 C   0  0  0  0  0  0  0  0  0  0  0  0
   19.9730   22.2386   23.3133 H   0  0  0  0  0  0  0  0  0  0  0  0
   18.3929   21.4866   22.9914 H   0  0  0  0  0  0  0  0  0  0  0  0
   18.7688   23.0806   22.3168 H   0  0  0  0  0  0  0  0  0  0  0  0
  1  2  1  0  0  0  0
  1  3  2  0  0  0  0
  1  4  1  0  0  0  0
  4  5  1  0  0  0  0
  4  6  1  0  0  0  0
  4  7  1  0  0  0  0
  7  8  1  0  0  0  0
  7  9  1  0  0  0  0
  7 10  1  0  0  0  0
 10 11  1  0  0  0  0
 10 12  1  0  0  0  0
 10 13  1  0  0  0  0
 13 14  1  0  0  0  0
 13 15  1  0  0  0  0
 13 16  1  0  0  0  0
 16 17  1  0  0  0  0
 16 18  1  0  0  0  0
 16 19  1  0  0  0  0
 19 20  1  0  0  0  0
 19 21  1  0  0  0  0
 19 22  1  0  0  0  0
M  END
> <VConfSearch Rank>
284

> <Conf_Id>
38

> <Delta U+W>
-0.439

> <U+W>
-53.598

> <U>
6.751

> <W>
-60.350

> <W(PB)>
-62.659

> <W(SA)>
2.309

> <Valence>
7.602

> <Coulomb>
-1.744

> <VdW>
0.893

> <VdW6>
-7.110

> <VdW12>
8.004

> <Bond>
0.131

> <Angle>
2.489

> <Pdih>
4.981

> <Idih>
0.001

> <Tether>
0.000

$$$$
VeraChem MOL file


 22 21  0  0  0  0  0  0  0  0999 V2000     
   19.1284   19.9787   18.6596 C   0  0  0  0  0  0  0  0  0  0  0  0
   19.8917   19.7777   17.7358 O   0  5  0  0  0  0  0  0  0  0  0  0
   18.2370   20.8039   18.6284 O   0  0  0  0  0  0  0  0  0  0  0  0
   19.3139   19.1667   19.9365 C   0  0  0  0  0  0  0  0  0  0  0  0
   19.7009   18.1792   19.6582 H   0  0  0  0  0  0  0  0  0  0  0  0
   18.3239   19.0152   20.3809 H   0  0  0  0  0  0  0  0  0  0  0  0
   20.2703   19.8504   20.9482 C   0  0  0  0  0  0  0  0  0  0  0  0
   21.2178   20.0746   20.4388 H   0  0  0  0  0  0  0  0  0  0  0  0
   19.8488   20.8169   21.2572 H   0  0  0  0  0  0  0  0  0  0  0  0
   20.5728   18.9882   22.1971 C   0  0  0  0  0  0  0  0  0  0  0  0
   21.3595   19.4908   22.7740 H   0  0  0  0  0  0  0  0  0  0  0  0
   20.9862   18.0197   21.8843 H   0  0  0  0  0  0  0  0  0  0  0  0
   19.3370   18.7613   23.1022 C   0  0  0  0  0  0  0  0  0  0  0  0
   18.9227   19.7299   23.4134 H   0  0  0  0  0  0  0  0  0  0  0  0
   18.5506   18.2560   22.5274 H   0  0  0  0  0  0  0  0  0  0  0  0
   19.6408   17.9032   24.3525 C   0  0  0  0  0  0  0  0  0  0  0  0
   20.0663   16.9377   24.0458 H   0  0  0  0  0  0  0  0  0  0  0  0
   18.6938   17.6767   24.8617 H   0  0  0  0  0  0  0  0  0  0  0  0
   20.5889   18.5944   25.3565 C   0  0  0  0  0  0  0  0  0  0  0  0
   21.5914   18.7325   24.9328 H   0  0  0  0  0  0  0  0  0  0  0  0
   20.6940   17.9872   26.2648 H   0  0  0  0  0  0  0  0  0  0  0  0
   20.2002   19.5779   25.6509 H   0  0  0  0  0  0  0  0  0  0  0  0
  1  2  1  0  0  0  0
  1  3  2  0  0  0  0
  1  4  1  0  0  0  0
  4  5  1  0  0  0  0
  4  6  1  0  0  0  0
  4  7  1  0  0  0  0
  7  8  1  0  0  0  0
  7  9  1  0  0  0  0
  7 10  1  0  0  0  0
 10 11  1  0  0  0  0
 10 12  1  0  0  0  0
 10 13  1  0  0  0  0
 13 14  1  0  0  0  0
 13 15  1  0  0  0  0
 13 16  1  0  0  0  0
 16 17  1  0  0  0  0
 16 18  1  0  0  0  0
 16 19  1  0  0  0  0
 19 20  1  0  0  0  0
 19 21  1  0  0  0  0
 19 22  1  0  0  0  0
M  END
> <VConfSearch Rank>
285

> <Conf_Id>
60

> <Delta U+W>
0.386

> <U+W>
-52.773

> <U>
7.689

> <W>
-60.463

> <W(PB)>
-62.772

> <W(SA)>
2.309

> <Valence>
8.197

> <Coulomb>
-1.561

> <VdW>
1.053

> <VdW6>
-7.737

> <VdW12>
8.790

> <Bond>
0.181

> <Angle>
2.780

> <Pdih>
5.235

> <Idih>
0.001

> <Tether>
0.000

$$$$
VeraChem MOL file


 22 21  0  0  0  0  0  0  0  0999 V2000     
   17.9473   21.9199   20.9311 C   0  0  0  0  0  0  0  0  0  0  0  0
   18.6349   22.5417   20.1456 O   0  5  0  0  0  0  0  0  0  0  0  0
   16.9648   22.3815   21.4773 O   0  0  0  0  0  0  0  0  0  0  0  0
   18.3524   20.4891   21.2674 C   0  0  0  0  0  0  0  0  0  0  0  0
   18.8041   20.0519   20.3700 H   0  0  0  0  0  0  0  0  0  0  0  0
   17.4407   19.9196   21.4839 H   0  0  0  0  0  0  0  0  0  0  0  0
   19.3307   20.4096   22.4683 C   0  0  0  0  0  0  0  0  0  0  0  0
   20.2598   20.9419   22.2216 H   0  0  0  0  0  0  0  0  0  0  0  0
   18.8852   20.9425   23.3197 H   0  0  0  0  0  0  0  0  0  0  0  0
   19.6579   18.9624   22.9080 C   0  0  0  0  0  0  0  0  0  0  0  0
   18.7266   18.4307   23.1460 H   0  0  0  0  0  0  0  0  0  0  0  0
   20.2345   19.0132   23.8404 H   0  0  0  0  0  0  0  0  0  0  0  0
   20.4598   18.1644   21.8505 C   0  0  0  0  0  0  0  0  0  0  0  0
   19.8831   18.1101   20.9186 H   0  0  0  0  0  0  0  0  0  0  0  0
   21.3902   18.6972   21.6112 H   0  0  0  0  0  0  0  0  0  0  0  0
   20.7905   16.7196   22.2923 C   0  0  0  0  0  0  0  0  0  0  0  0
   21.2341   16.1849   21.4411 H   0  0  0  0  0  0  0  0  0  0  0  0
   19.8631   16.1867   22.5437 H   0  0  0  0  0  0  0  0  0  0  0  0
   21.7699   16.6506   23.4842 C   0  0  0  0  0  0  0  0  0  0  0  0
   22.6915   17.2066   23.2683 H   0  0  0  0  0  0  0  0  0  0  0  0
   22.0454   15.6089   23.6942 H   0  0  0  0  0  0  0  0  0  0  0  0
   21.3228   17.0650   24.3963 H   0  0  0  0  0  0  0  0  0  0  0  0
  1  2  1  0  0  0  0
  1  3  2  0  0  0  0
  1  4  1  0  0  0  0
  4  5  1  0  0  0  0
  4  6  1  0  0  0  0
  4  7  1  0  0  0  0
  7  8  1  0  0  0  0
  7  9  1  0  0  0  0
  7 10  1  0  0  0  0
 10 11  1  0  0  0  0
 10 12  1  0  0  0  0
 10 13  1  0  0  0  0
 13 14  1  0  0  0  0
 13 15  1  0  0  0  0
 13 16  1  0  0  0  0
 16 17  1  0  0  0  0
 16 18  1  0  0  0  0
 16 19  1  0  0  0  0
 19 20  1  0  0  0  0
 19 21  1  0  0  0  0
 19 22  1  0  0  0  0
M  END
> <VConfSearch Rank>
286

> <Conf_Id>
28

> <Delta U+W>
0.351

> <U+W>
-52.808

> <U>
7.689

> <W>
-60.498

> <W(PB)>
-62.768

> <W(SA)>
2.270

> <Valence>
8.197

> <Coulomb>
-1.561

> <VdW>
1.053

> <VdW6>
-7.737

> <VdW12>
8.791

> <Bond>
0.181

> <Angle>
2.780

> <Pdih>
5.235

> <Idih>
0.001

> <Tether>
0.000

$$$$
VeraChem MOL file


 22 21  0  0  0  0  0  0  0  0999 V2000     
   21.8795   18.1480   19.1771 C   0  0  0  0  0  0  0  0  0  0  0  0
   22.5065   17.1073   19.1622 O   0  5  0  0  0  0  0  0  0  0  0  0
   21.2440   18.5645   18.2288 O   0  0  0  0  0  0  0  0  0  0  0  0
   21.8735   18.9666   20.4632 C   0  0  0  0  0  0  0  0  0  0  0  0
   21.7988   20.0266   20.1922 H   0  0  0  0  0  0  0  0  0  0  0  0
   22.8408   18.8265   20.9605 H   0  0  0  0  0  0  0  0  0  0  0  0
   20.7188   18.5772   21.4189 C   0  0  0  0  0  0  0  0  0  0  0  0
   19.7641   18.7066   20.8924 H   0  0  0  0  0  0  0  0  0  0  0  0
   20.8027   17.5116   21.6736 H   0  0  0  0  0  0  0  0  0  0  0  0
   20.7339   19.4254   22.7117 C   0  0  0  0  0  0  0  0  0  0  0  0
   20.5971   20.4862   22.4608 H   0  0  0  0  0  0  0  0  0  0  0  0
   21.7234   19.3422   23.1816 H   0  0  0  0  0  0  0  0  0  0  0  0
   19.6643   18.9953   23.7434 C   0  0  0  0  0  0  0  0  0  0  0  0
   19.8032   17.9356   23.9977 H   0  0  0  0  0  0  0  0  0  0  0  0
   19.8281   19.5611   24.6708 H   0  0  0  0  0  0  0  0  0  0  0  0
   18.2144   19.2299   23.2627 C   0  0  0  0  0  0  0  0  0  0  0  0
   18.0038   18.6124   22.3797 H   0  0  0  0  0  0  0  0  0  0  0  0
   18.0898   20.2783   22.9584 H   0  0  0  0  0  0  0  0  0  0  0  0
   17.1914   18.8920   24.3659 C   0  0  0  0  0  0  0  0  0  0  0  0
   17.3480   19.5195   25.2531 H   0  0  0  0  0  0  0  0  0  0  0  0
   17.2756   17.8405   24.6703 H   0  0  0  0  0  0  0  0  0  0  0  0
   16.1673   19.0605   24.0084 H   0  0  0  0  0  0  0  0  0  0  0  0
  1  2  1  0  0  0  0
  1  3  2  0  0  0  0
  1  4  1  0  0  0  0
  4  5  1  0  0  0  0
  4  6  1  0  0  0  0
  4  7  1  0  0  0  0
  7  8  1  0  0  0  0
  7  9  1  0  0  0  0
  7 10  1  0  0  0  0
 10 11  1  0  0  0  0
 10 12  1  0  0  0  0
 10 13  1  0  0  0  0
 13 14  1  0  0  0  0
 13 15  1  0  0  0  0
 13 16  1  0  0  0  0
 16 17  1  0  0  0  0
 16 18  1  0  0  0  0
 16 19  1  0  0  0  0
 19 20  1  0  0  0  0
 19 21  1  0  0  0  0
 19 22  1  0  0  0  0
M  END
> <VConfSearch Rank>
287

> <Conf_Id>
50

> <Delta U+W>
-0.486

> <U+W>
-53.646

> <U>
7.026

> <W>
-60.672

> <W(PB)>
-62.964

> <W(SA)>
2.292

> <Valence>
7.637

> <Coulomb>
-1.488

> <VdW>
0.877

> <VdW6>
-7.165

> <VdW12>
8.043

> <Bond>
0.134

> <Angle>
2.513

> <Pdih>
4.990

> <Idih>
0.001

> <Tether>
0.000

$$$$
VeraChem MOL file


 22 21  0  0  0  0  0  0  0  0999 V2000     
   18.3698   21.0865   19.4669 C   0  0  0  0  0  0  0  0  0  0  0  0
   17.8219   20.4914   18.5602 O   0  5  0  0  0  0  0  0  0  0  0  0
   19.1272   22.0215   19.2975 O   0  0  0  0  0  0  0  0  0  0  0  0
   18.1084   20.6214   20.8951 C   0  0  0  0  0  0  0  0  0  0  0  0
   17.0825   20.2372   20.9456 H   0  0  0  0  0  0  0  0  0  0  0  0
   18.1597   21.4969   21.5534 H   0  0  0  0  0  0  0  0  0  0  0  0
   19.1094   19.5385   21.3679 C   0  0  0  0  0  0  0  0  0  0  0  0
   19.0524   18.6728   20.6936 H   0  0  0  0  0  0  0  0  0  0  0  0
   20.1286   19.9393   21.2892 H   0  0  0  0  0  0  0  0  0  0  0  0
   18.8242   19.0888   22.8196 C   0  0  0  0  0  0  0  0  0  0  0  0
   17.7773   18.7638   22.8933 H   0  0  0  0  0  0  0  0  0  0  0  0
   18.9328   19.9439   23.5008 H   0  0  0  0  0  0  0  0  0  0  0  0
   19.7314   17.9294   23.2952 C   0  0  0  0  0  0  0  0  0  0  0  0
   19.3789   17.5932   24.2799 H   0  0  0  0  0  0  0  0  0  0  0  0
   19.6201   17.0727   22.6165 H   0  0  0  0  0  0  0  0  0  0  0  0
   21.2232   18.3183   23.4029 C   0  0  0  0  0  0  0  0  0  0  0  0
   21.3295   19.2074   24.0396 H   0  0  0  0  0  0  0  0  0  0  0  0
   21.6177   18.5834   22.4132 H   0  0  0  0  0  0  0  0  0  0  0  0
   22.0668   17.1669   23.9865 C   0  0  0  0  0  0  0  0  0  0  0  0
   22.0005   16.2721   23.3538 H   0  0  0  0  0  0  0  0  0  0  0  0
   21.7241   16.9002   24.9949 H   0  0  0  0  0  0  0  0  0  0  0  0
   23.1233   17.4571   24.0536 H   0  0  0  0  0  0  0  0  0  0  0  0
  1  2  1  0  0  0  0
  1  3  2  0  0  0  0
  1  4  1  0  0  0  0
  4  5  1  0  0  0  0
  4  6  1  0  0  0  0
  4  7  1  0  0  0  0
  7  8  1  0  0  0  0
  7  9  1  0  0  0  0
  7 10  1  0  0  0  0
 10 11  1  0  0  0  0
 10 12  1  0  0  0  0
 10 13  1  0  0  0  0
 13 14  1  0  0  0  0
 13 15  1  0  0  0  0
 13 16  1  0  0  0  0
 16 17  1  0  0  0  0
 16 18  1  0  0  0  0
 16 19  1  0  0  0  0
 19 20  1  0  0  0  0
 19 21  1  0  0  0  0
 19 22  1  0  0  0  0
M  END
> <VConfSearch Rank>
288

> <Conf_Id>
51

> <Delta U+W>
-0.517

> <U+W>
-53.677

> <U>
7.026

> <W>
-60.703

> <W(PB)>
-63.007

> <W(SA)>
2.304

> <Valence>
7.638

> <Coulomb>
-1.488

> <VdW>
0.877

> <VdW6>
-7.165

> <VdW12>
8.042

> <Bond>
0.134

> <Angle>
2.513

> <Pdih>
4.990

> <Idih>
0.001

> <Tether>
0.000

$$$$
VeraChem MOL file


 22 21  0  0  0  0  0  0  0  0999 V2000     
   21.1872   21.6346   20.6465 C   0  0  0  0  0  0  0  0  0  0  0  0
   22.1441   21.3795   19.9422 O   0  5  0  0  0  0  0  0  0  0  0  0
   20.1311   22.0571   20.2188 O   0  0  0  0  0  0  0  0  0  0  0  0
   21.3281   21.4305   22.1524 C   0  0  0  0  0  0  0  0  0  0  0  0
   20.5466   22.0098   22.6590 H   0  0  0  0  0  0  0  0  0  0  0  0
   22.2894   21.8633   22.4534 H   0  0  0  0  0  0  0  0  0  0  0  0
   21.2668   19.9458   22.5961 C   0  0  0  0  0  0  0  0  0  0  0  0
   22.0365   19.3736   22.0596 H   0  0  0  0  0  0  0  0  0  0  0  0
   21.5134   19.8827   23.6647 H   0  0  0  0  0  0  0  0  0  0  0  0
   19.8791   19.3104   22.3552 C   0  0  0  0  0  0  0  0  0  0  0  0
   19.6327   19.3543   21.2853 H   0  0  0  0  0  0  0  0  0  0  0  0
   19.1119   19.8936   22.8827 H   0  0  0  0  0  0  0  0  0  0  0  0
   19.8315   17.8430   22.8327 C   0  0  0  0  0  0  0  0  0  0  0  0
   20.5989   17.2605   22.3047 H   0  0  0  0  0  0  0  0  0  0  0  0
   20.0748   17.7967   23.9031 H   0  0  0  0  0  0  0  0  0  0  0  0
   18.4462   17.2075   22.5916 C   0  0  0  0  0  0  0  0  0  0  0  0
   18.2001   17.2504   21.5215 H   0  0  0  0  0  0  0  0  0  0  0  0
   17.6760   17.7867   23.1197 H   0  0  0  0  0  0  0  0  0  0  0  0
   18.4026   15.7421   23.0691 C   0  0  0  0  0  0  0  0  0  0  0  0
   19.1424   15.1325   22.5339 H   0  0  0  0  0  0  0  0  0  0  0  0
   17.4111   15.3062   22.8902 H   0  0  0  0  0  0  0  0  0  0  0  0
   18.6144   15.6728   24.1442 H   0  0  0  0  0  0  0  0  0  0  0  0
  1  2  1  0  0  0  0
  1  3  2  0  0  0  0
  1  4  1  0  0  0  0
  4  5  1  0  0  0  0
  4  6  1  0  0  0  0
  4  7  1  0  0  0  0
  7  8  1  0  0  0  0
  7  9  1  0  0  0  0
  7 10  1  0  0  0  0
 10 11  1  0  0  0  0
 10 12  1  0  0  0  0
 10 13  1  0  0  0  0
 13 14  1  0  0  0  0
 13 15  1  0  0  0  0
 13 16  1  0  0  0  0
 16 17  1  0  0  0  0
 16 18  1  0  0  0  0
 16 19  1  0  0  0  0
 19 20  1  0  0  0  0
 19 21  1  0  0  0  0
 19 22  1  0  0  0  0
M  END
> <VConfSearch Rank>
289

> <Conf_Id>
43

> <Delta U+W>
-0.129

> <U+W>
-53.289

> <U>
7.937

> <W>
-61.225

> <W(PB)>
-63.523

> <W(SA)>
2.297

> <Valence>
7.358

> <Coulomb>
-0.022

> <VdW>
0.601

> <VdW6>
-7.363

> <VdW12>
7.964

> <Bond>
0.121

> <Angle>
2.425

> <Pdih>
4.811

> <Idih>
0.000

> <Tether>
0.000

$$$$
VeraChem MOL file


 22 21  0  0  0  0  0  0  0  0999 V2000     
   22.3895   17.0273   23.1213 C   0  0  0  0  0  0  0  0  0  0  0  0
   22.7468   17.1250   24.2787 O   0  5  0  0  0  0  0  0  0  0  0  0
   23.0994   17.2996   22.1732 O   0  0  0  0  0  0  0  0  0  0  0  0
   20.9779   16.5172   22.8452 C   0  0  0  0  0  0  0  0  0  0  0  0
   20.8142   15.6425   23.4856 H   0  0  0  0  0  0  0  0  0  0  0  0
   20.9295   16.1646   21.8078 H   0  0  0  0  0  0  0  0  0  0  0  0
   19.8658   17.5659   23.1068 C   0  0  0  0  0  0  0  0  0  0  0  0
   18.8864   17.0766   23.0179 H   0  0  0  0  0  0  0  0  0  0  0  0
   19.9447   17.9299   24.1407 H   0  0  0  0  0  0  0  0  0  0  0  0
   19.9305   18.7580   22.1258 C   0  0  0  0  0  0  0  0  0  0  0  0
   19.8644   18.3878   21.0936 H   0  0  0  0  0  0  0  0  0  0  0  0
   20.9015   19.2635   22.2212 H   0  0  0  0  0  0  0  0  0  0  0  0
   18.7964   19.7732   22.3840 C   0  0  0  0  0  0  0  0  0  0  0  0
   17.8242   19.2707   22.2865 H   0  0  0  0  0  0  0  0  0  0  0  0
   18.8632   20.1429   23.4165 H   0  0  0  0  0  0  0  0  0  0  0  0
   18.8608   20.9643   21.4053 C   0  0  0  0  0  0  0  0  0  0  0  0
   18.7926   20.5984   20.3714 H   0  0  0  0  0  0  0  0  0  0  0  0
   19.8314   21.4705   21.5013 H   0  0  0  0  0  0  0  0  0  0  0  0
   17.7272   21.9762   21.6665 C   0  0  0  0  0  0  0  0  0  0  0  0
   16.7435   21.5037   21.5461 H   0  0  0  0  0  0  0  0  0  0  0  0
   17.7883   22.8160   20.9622 H   0  0  0  0  0  0  0  0  0  0  0  0
   17.7902   22.3824   22.6846 H   0  0  0  0  0  0  0  0  0  0  0  0
  1  2  1  0  0  0  0
  1  3  2  0  0  0  0
  1  4  1  0  0  0  0
  4  5  1  0  0  0  0
  4  6  1  0  0  0  0
  4  7  1  0  0  0  0
  7  8  1  0  0  0  0
  7  9  1  0  0  0  0
  7 10  1  0  0  0  0
 10 11  1  0  0  0  0
 10 12  1  0  0  0  0
 10 13  1  0  0  0  0
 13 14  1  0  0  0  0
 13 15  1  0  0  0  0
 13 16  1  0  0  0  0
 16 17  1  0  0  0  0
 16 18  1  0  0  0  0
 16 19  1  0  0  0  0
 19 20  1  0  0  0  0
 19 21  1  0  0  0  0
 19 22  1  0  0  0  0
M  END
> <VConfSearch Rank>
290

> <Conf_Id>
44

> <Delta U+W>
-0.155

> <U+W>
-53.314

> <U>
7.937

> <W>
-61.252

> <W(PB)>
-63.556

> <W(SA)>
2.304

> <Valence>
7.358

> <Coulomb>
-0.021

> <VdW>
0.600

> <VdW6>
-7.363

> <VdW12>
7.964

> <Bond>
0.121

> <Angle>
2.425

> <Pdih>
4.811

> <Idih>
0.001

> <Tether>
0.000

$$$$
VeraChem MOL file


 22 21  0  0  0  0  0  0  0  0999 V2000     
   20.9138   22.0405   20.8758 C   0  0  0  0  0  0  0  0  0  0  0  0
   21.7359   22.5815   21.5889 O   0  5  0  0  0  0  0  0  0  0  0  0
   19.9531   22.6147   20.4022 O   0  0  0  0  0  0  0  0  0  0  0  0
   21.1111   20.5643   20.5426 C   0  0  0  0  0  0  0  0  0  0  0  0
   22.1637   20.4290   20.2676 H   0  0  0  0  0  0  0  0  0  0  0  0
   20.5170   20.3232   19.6528 H   0  0  0  0  0  0  0  0  0  0  0  0
   20.7518   19.6002   21.7033 C   0  0  0  0  0  0  0  0  0  0  0  0
   21.0709   18.5878   21.4253 H   0  0  0  0  0  0  0  0  0  0  0  0
   21.3246   19.8794   22.5986 H   0  0  0  0  0  0  0  0  0  0  0  0
   19.2385   19.5994   22.0277 C   0  0  0  0  0  0  0  0  0  0  0  0
   18.6701   19.2794   21.1438 H   0  0  0  0  0  0  0  0  0  0  0  0
   18.9163   20.6266   22.2469 H   0  0  0  0  0  0  0  0  0  0  0  0
   18.8670   18.7057   23.2348 C   0  0  0  0  0  0  0  0  0  0  0  0
   19.4358   19.0260   24.1184 H   0  0  0  0  0  0  0  0  0  0  0  0
   17.8068   18.8671   23.4731 H   0  0  0  0  0  0  0  0  0  0  0  0
   19.0997   17.1988   22.9828 C   0  0  0  0  0  0  0  0  0  0  0  0
   20.1677   17.0022   22.8217 H   0  0  0  0  0  0  0  0  0  0  0  0
   18.5749   16.8906   22.0681 H   0  0  0  0  0  0  0  0  0  0  0  0
   18.6067   16.3448   24.1683 C   0  0  0  0  0  0  0  0  0  0  0  0
   19.1352   16.6138   25.0922 H   0  0  0  0  0  0  0  0  0  0  0  0
   18.7818   15.2783   23.9759 H   0  0  0  0  0  0  0  0  0  0  0  0
   17.5308   16.4868   24.3347 H   0  0  0  0  0  0  0  0  0  0  0  0
  1  2  1  0  0  0  0
  1  3  2  0  0  0  0
  1  4  1  0  0  0  0
  4  5  1  0  0  0  0
  4  6  1  0  0  0  0
  4  7  1  0  0  0  0
  7  8  1  0  0  0  0
  7  9  1  0  0  0  0
  7 10  1  0  0  0  0
 10 11  1  0  0  0  0
 10 12  1  0  0  0  0
 10 13  1  0  0  0  0
 13 14  1  0  0  0  0
 13 15  1  0  0  0  0
 13 16  1  0  0  0  0
 16 17  1  0  0  0  0
 16 18  1  0  0  0  0
 16 19  1  0  0  0  0
 19 20  1  0  0  0  0
 19 21  1  0  0  0  0
 19 22  1  0  0  0  0
M  END
> <VConfSearch Rank>
291

> <Conf_Id>
53

> <Delta U+W>
0.723

> <U+W>
-52.436

> <U>
8.587

> <W>
-61.022

> <W(PB)>
-63.285

> <W(SA)>
2.263

> <Valence>
7.933

> <Coulomb>
-0.124

> <VdW>
0.778

> <VdW6>
-7.981

> <VdW12>
8.759

> <Bond>
0.160

> <Angle>
2.698

> <Pdih>
5.074

> <Idih>
0.001

> <Tether>
0.000

$$$$
VeraChem MOL file


 22 21  0  0  0  0  0  0  0  0999 V2000     
   18.6862   19.5439   19.2287 C   0  0  0  0  0  0  0  0  0  0  0  0
   19.1324   18.6830   18.4964 O   0  5  0  0  0  0  0  0  0  0  0  0
   17.9118   20.4050   18.8605 O   0  0  0  0  0  0  0  0  0  0  0  0
   19.1031   19.5300   20.6949 C   0  0  0  0  0  0  0  0  0  0  0  0
   19.1025   20.5641   21.0595 H   0  0  0  0  0  0  0  0  0  0  0  0
   20.1345   19.1630   20.7424 H   0  0  0  0  0  0  0  0  0  0  0  0
   18.1778   18.6509   21.5737 C   0  0  0  0  0  0  0  0  0  0  0  0
   17.1359   18.9536   21.3999 H   0  0  0  0  0  0  0  0  0  0  0  0
   18.2530   17.6055   21.2441 H   0  0  0  0  0  0  0  0  0  0  0  0
   18.4679   18.7385   23.0932 C   0  0  0  0  0  0  0  0  0  0  0  0
   17.7235   18.1159   23.6081 H   0  0  0  0  0  0  0  0  0  0  0  0
   18.2985   19.7632   23.4513 H   0  0  0  0  0  0  0  0  0  0  0  0
   19.8778   18.2492   23.5107 C   0  0  0  0  0  0  0  0  0  0  0  0
   19.7958   17.7372   24.4792 H   0  0  0  0  0  0  0  0  0  0  0  0
   20.2429   17.4972   22.7977 H   0  0  0  0  0  0  0  0  0  0  0  0
   20.9055   19.3950   23.6587 C   0  0  0  0  0  0  0  0  0  0  0  0
   20.5535   20.1085   24.4165 H   0  0  0  0  0  0  0  0  0  0  0  0
   20.9983   19.9544   22.7203 H   0  0  0  0  0  0  0  0  0  0  0  0
   22.2925   18.8608   24.0687 C   0  0  0  0  0  0  0  0  0  0  0  0
   22.2412   18.3289   25.0278 H   0  0  0  0  0  0  0  0  0  0  0  0
   23.0084   19.6859   24.1766 H   0  0  0  0  0  0  0  0  0  0  0  0
   22.6850   18.1680   23.3129 H   0  0  0  0  0  0  0  0  0  0  0  0
  1  2  1  0  0  0  0
  1  3  2  0  0  0  0
  1  4  1  0  0  0  0
  4  5  1  0  0  0  0
  4  6  1  0  0  0  0
  4  7  1  0  0  0  0
  7  8  1  0  0  0  0
  7  9  1  0  0  0  0
  7 10  1  0  0  0  0
 10 11  1  0  0  0  0
 10 12  1  0  0  0  0
 10 13  1  0  0  0  0
 13 14  1  0  0  0  0
 13 15  1  0  0  0  0
 13 16  1  0  0  0  0
 16 17  1  0  0  0  0
 16 18  1  0  0  0  0
 16 19  1  0  0  0  0
 19 20  1  0  0  0  0
 19 21  1  0  0  0  0
 19 22  1  0  0  0  0
M  END
> <VConfSearch Rank>
292

> <Conf_Id>
5

> <Delta U+W>
2.167

> <U+W>
-50.993

> <U>
10.045

> <W>
-61.037

> <W(PB)>
-63.303

> <W(SA)>
2.266

> <Valence>
10.100

> <Coulomb>
-0.883

> <VdW>
0.828

> <VdW6>
-8.177

> <VdW12>
9.005

> <Bond>
0.182

> <Angle>
2.988

> <Pdih>
6.930

> <Idih>
0.001

> <Tether>
0.000

$$$$
VeraChem MOL file


 22 21  0  0  0  0  0  0  0  0999 V2000     
   16.9497   18.1795   23.8048 C   0  0  0  0  0  0  0  0  0  0  0  0
   17.1547   17.4882   24.7828 O   0  5  0  0  0  0  0  0  0  0  0  0
   15.8387   18.4709   23.4081 O   0  0  0  0  0  0  0  0  0  0  0  0
   18.1518   18.6907   23.0188 C   0  0  0  0  0  0  0  0  0  0  0  0
   18.9627   18.8701   23.7336 H   0  0  0  0  0  0  0  0  0  0  0  0
   17.8829   19.6562   22.5741 H   0  0  0  0  0  0  0  0  0  0  0  0
   18.6131   17.7028   21.9178 C   0  0  0  0  0  0  0  0  0  0  0  0
   18.9538   16.7704   22.3887 H   0  0  0  0  0  0  0  0  0  0  0  0
   17.7454   17.4353   21.2990 H   0  0  0  0  0  0  0  0  0  0  0  0
   19.7262   18.2534   20.9911 C   0  0  0  0  0  0  0  0  0  0  0  0
   19.3594   19.1304   20.4405 H   0  0  0  0  0  0  0  0  0  0  0  0
   19.9313   17.4880   20.2302 H   0  0  0  0  0  0  0  0  0  0  0  0
   21.0578   18.5881   21.7098 C   0  0  0  0  0  0  0  0  0  0  0  0
   21.1749   17.9564   22.6010 H   0  0  0  0  0  0  0  0  0  0  0  0
   21.8893   18.3287   21.0403 H   0  0  0  0  0  0  0  0  0  0  0  0
   21.1926   20.0816   22.0865 C   0  0  0  0  0  0  0  0  0  0  0  0
   20.3637   20.3934   22.7331 H   0  0  0  0  0  0  0  0  0  0  0  0
   21.1309   20.6966   21.1781 H   0  0  0  0  0  0  0  0  0  0  0  0
   22.5279   20.3656   22.8032 C   0  0  0  0  0  0  0  0  0  0  0  0
   22.6041   19.7879   23.7337 H   0  0  0  0  0  0  0  0  0  0  0  0
   22.6117   21.4302   23.0574 H   0  0  0  0  0  0  0  0  0  0  0  0
   23.3809   20.1014   22.1645 H   0  0  0  0  0  0  0  0  0  0  0  0
  1  2  1  0  0  0  0
  1  3  2  0  0  0  0
  1  4  1  0  0  0  0
  4  5  1  0  0  0  0
  4  6  1  0  0  0  0
  4  7  1  0  0  0  0
  7  8  1  0  0  0  0
  7  9  1  0  0  0  0
  7 10  1  0  0  0  0
 10 11  1  0  0  0  0
 10 12  1  0  0  0  0
 10 13  1  0  0  0  0
 13 14  1  0  0  0  0
 13 15  1  0  0  0  0
 13 16  1  0  0  0  0
 16 17  1  0  0  0  0
 16 18  1  0  0  0  0
 16 19  1  0  0  0  0
 19 20  1  0  0  0  0
 19 21  1  0  0  0  0
 19 22  1  0  0  0  0
M  END
> <VConfSearch Rank>
293

> <Conf_Id>
6

> <Delta U+W>
2.118

> <U+W>
-51.042

> <U>
10.045

> <W>
-61.086

> <W(PB)>
-63.356

> <W(SA)>
2.270

> <Valence>
10.100

> <Coulomb>
-0.883

> <VdW>
0.828

> <VdW6>
-8.177

> <VdW12>
9.004

> <Bond>
0.182

> <Angle>
2.988

> <Pdih>
6.930

> <Idih>
0.001

> <Tether>
0.000

$$$$
VeraChem MOL file


 22 21  0  0  0  0  0  0  0  0999 V2000     
   19.3443   21.4298   23.7093 C   0  0  0  0  0  0  0  0  0  0  0  0
   18.6580   22.0749   22.9410 O   0  5  0  0  0  0  0  0  0  0  0  0
   20.5276   21.6404   23.8896 O   0  0  0  0  0  0  0  0  0  0  0  0
   18.6709   20.3431   24.5455 C   0  0  0  0  0  0  0  0  0  0  0  0
   17.9378   20.8533   25.1809 H   0  0  0  0  0  0  0  0  0  0  0  0
   19.4143   19.8991   25.2187 H   0  0  0  0  0  0  0  0  0  0  0  0
   17.9490   19.2318   23.7326 C   0  0  0  0  0  0  0  0  0  0  0  0
   17.2208   18.7457   24.3958 H   0  0  0  0  0  0  0  0  0  0  0  0
   17.3630   19.6829   22.9198 H   0  0  0  0  0  0  0  0  0  0  0  0
   18.8806   18.1308   23.1680 C   0  0  0  0  0  0  0  0  0  0  0  0
   18.2521   17.3303   22.7543 H   0  0  0  0  0  0  0  0  0  0  0  0
   19.4570   17.6787   23.9867 H   0  0  0  0  0  0  0  0  0  0  0  0
   19.8443   18.6250   22.0655 C   0  0  0  0  0  0  0  0  0  0  0  0
   19.2779   19.1678   21.2963 H   0  0  0  0  0  0  0  0  0  0  0  0
   20.5672   19.3323   22.4914 H   0  0  0  0  0  0  0  0  0  0  0  0
   20.6127   17.4561   21.4135 C   0  0  0  0  0  0  0  0  0  0  0  0
   19.9013   16.7431   20.9743 H   0  0  0  0  0  0  0  0  0  0  0  0
   21.1784   16.9111   22.1819 H   0  0  0  0  0  0  0  0  0  0  0  0
   21.5803   17.9522   20.3203 C   0  0  0  0  0  0  0  0  0  0  0  0
   21.0363   18.4746   19.5224 H   0  0  0  0  0  0  0  0  0  0  0  0
   22.1188   17.1092   19.8682 H   0  0  0  0  0  0  0  0  0  0  0  0
   22.3230   18.6444   20.7384 H   0  0  0  0  0  0  0  0  0  0  0  0
  1  2  1  0  0  0  0
  1  3  2  0  0  0  0
  1  4  1  0  0  0  0
  4  5  1  0  0  0  0
  4  6  1  0  0  0  0
  4  7  1  0  0  0  0
  7  8  1  0  0  0  0
  7  9  1  0  0  0  0
  7 10  1  0  0  0  0
 10 11  1  0  0  0  0
 10 12  1  0  0  0  0
 10 13  1  0  0  0  0
 13 14  1  0  0  0  0
 13 15  1  0  0  0  0
 13 16  1  0  0  0  0
 16 17  1  0  0  0  0
 16 18  1  0  0  0  0
 16 19  1  0  0  0  0
 19 20  1  0  0  0  0
 19 21  1  0  0  0  0
 19 22  1  0  0  0  0
M  END
> <VConfSearch Rank>
294

> <Conf_Id>
8

> <Delta U+W>
1.886

> <U+W>
-51.274

> <U>
11.237

> <W>
-62.510

> <W(PB)>
-64.777

> <W(SA)>
2.267

> <Valence>
9.029

> <Coulomb>
1.667

> <VdW>
0.540

> <VdW6>
-8.825

> <VdW12>
9.365

> <Bond>
0.186

> <Angle>
3.195

> <Pdih>
5.642

> <Idih>
0.007

> <Tether>
0.000

$$$$
VeraChem MOL file


 22 21  0  0  0  0  0  0  0  0999 V2000     
   19.4456   21.1612   20.3124 C   0  0  0  0  0  0  0  0  0  0  0  0
   18.4239   20.6456   19.9037 O   0  5  0  0  0  0  0  0  0  0  0  0
   20.3454   21.5372   19.5869 O   0  0  0  0  0  0  0  0  0  0  0  0
   19.5964   21.3765   21.8157 C   0  0  0  0  0  0  0  0  0  0  0  0
   18.6160   21.2515   22.2888 H   0  0  0  0  0  0  0  0  0  0  0  0
   19.8811   22.4243   21.9673 H   0  0  0  0  0  0  0  0  0  0  0  0
   20.6527   20.4563   22.4869 C   0  0  0  0  0  0  0  0  0  0  0  0
   21.6349   20.6671   22.0415 H   0  0  0  0  0  0  0  0  0  0  0  0
   20.7353   20.7181   23.5504 H   0  0  0  0  0  0  0  0  0  0  0  0
   20.3635   18.9403   22.3563 C   0  0  0  0  0  0  0  0  0  0  0  0
   21.2167   18.3955   22.7796 H   0  0  0  0  0  0  0  0  0  0  0  0
   20.3144   18.6622   21.2946 H   0  0  0  0  0  0  0  0  0  0  0  0
   19.0627   18.4973   23.0697 C   0  0  0  0  0  0  0  0  0  0  0  0
   19.0996   18.7912   24.1274 H   0  0  0  0  0  0  0  0  0  0  0  0
   18.2086   19.0256   22.6266 H   0  0  0  0  0  0  0  0  0  0  0  0
   18.7905   16.9786   22.9632 C   0  0  0  0  0  0  0  0  0  0  0  0
   18.7685   16.6792   21.9062 H   0  0  0  0  0  0  0  0  0  0  0  0
   17.7886   16.7726   23.3644 H   0  0  0  0  0  0  0  0  0  0  0  0
   19.8167   16.1149   23.7286 C   0  0  0  0  0  0  0  0  0  0  0  0
   20.8173   16.1926   23.2857 H   0  0  0  0  0  0  0  0  0  0  0  0
   19.5237   15.0574   23.7013 H   0  0  0  0  0  0  0  0  0  0  0  0
   19.8804   16.4206   24.7810 H   0  0  0  0  0  0  0  0  0  0  0  0
  1  2  1  0  0  0  0
  1  3  2  0  0  0  0
  1  4  1  0  0  0  0
  4  5  1  0  0  0  0
  4  6  1  0  0  0  0
  4  7  1  0  0  0  0
  7  8  1  0  0  0  0
  7  9  1  0  0  0  0
  7 10  1  0  0  0  0
 10 11  1  0  0  0  0
 10 12  1  0  0  0  0
 10 13  1  0  0  0  0
 13 14  1  0  0  0  0
 13 15  1  0  0  0  0
 13 16  1  0  0  0  0
 16 17  1  0  0  0  0
 16 18  1  0  0  0  0
 16 19  1  0  0  0  0
 19 20  1  0  0  0  0
 19 21  1  0  0  0  0
 19 22  1  0  0  0  0
M  END
> <VConfSearch Rank>
295

> <Conf_Id>
93

> <Delta U+W>
1.836

> <U+W>
-51.323

> <U>
10.427

> <W>
-61.751

> <W(PB)>
-63.980

> <W(SA)>
2.230

> <Valence>
8.446

> <Coulomb>
1.306

> <VdW>
0.676

> <VdW6>
-8.928

> <VdW12>
9.604

> <Bond>
0.209

> <Angle>
3.066

> <Pdih>
5.170

> <Idih>
0.001

> <Tether>
0.000

$$$$
VeraChem MOL file


 22 21  0  0  0  0  0  0  0  0999 V2000     
   18.1884   21.7407   21.8569 C   0  0  0  0  0  0  0  0  0  0  0  0
   17.0760   21.8141   21.3726 O   0  5  0  0  0  0  0  0  0  0  0  0
   19.1843   22.1885   21.3236 O   0  0  0  0  0  0  0  0  0  0  0  0
   18.3355   21.0761   23.2229 C   0  0  0  0  0  0  0  0  0  0  0  0
   17.5907   21.5297   23.8872 H   0  0  0  0  0  0  0  0  0  0  0  0
   19.3165   21.3358   23.6363 H   0  0  0  0  0  0  0  0  0  0  0  0
   18.1359   19.5357   23.2052 C   0  0  0  0  0  0  0  0  0  0  0  0
   18.2020   19.1518   24.2322 H   0  0  0  0  0  0  0  0  0  0  0  0
   17.1152   19.3184   22.8612 H   0  0  0  0  0  0  0  0  0  0  0  0
   19.1365   18.7659   22.3081 C   0  0  0  0  0  0  0  0  0  0  0  0
   19.0523   19.1187   21.2711 H   0  0  0  0  0  0  0  0  0  0  0  0
   18.8405   17.7094   22.3004 H   0  0  0  0  0  0  0  0  0  0  0  0
   20.6063   18.8868   22.7798 C   0  0  0  0  0  0  0  0  0  0  0  0
   20.9069   19.9424   22.7620 H   0  0  0  0  0  0  0  0  0  0  0  0
   20.6912   18.5535   23.8230 H   0  0  0  0  0  0  0  0  0  0  0  0
   21.6009   18.0938   21.9000 C   0  0  0  0  0  0  0  0  0  0  0  0
   22.6238   18.3472   22.2109 H   0  0  0  0  0  0  0  0  0  0  0  0
   21.5069   18.4144   20.8532 H   0  0  0  0  0  0  0  0  0  0  0  0
   21.4201   16.5631   21.9947 C   0  0  0  0  0  0  0  0  0  0  0  0
   20.4553   16.2458   21.5802 H   0  0  0  0  0  0  0  0  0  0  0  0
   21.4758   16.2246   23.0376 H   0  0  0  0  0  0  0  0  0  0  0  0
   22.2084   16.0484   21.4302 H   0  0  0  0  0  0  0  0  0  0  0  0
  1  2  1  0  0  0  0
  1  3  2  0  0  0  0
  1  4  1  0  0  0  0
  4  5  1  0  0  0  0
  4  6  1  0  0  0  0
  4  7  1  0  0  0  0
  7  8  1  0  0  0  0
  7  9  1  0  0  0  0
  7 10  1  0  0  0  0
 10 11  1  0  0  0  0
 10 12  1  0  0  0  0
 10 13  1  0  0  0  0
 13 14  1  0  0  0  0
 13 15  1  0  0  0  0
 13 16  1  0  0  0  0
 16 17  1  0  0  0  0
 16 18  1  0  0  0  0
 16 19  1  0  0  0  0
 19 20  1  0  0  0  0
 19 21  1  0  0  0  0
 19 22  1  0  0  0  0
M  END
> <VConfSearch Rank>
296

> <Conf_Id>
70

> <Delta U+W>
1.803

> <U+W>
-51.356

> <U>
10.428

> <W>
-61.784

> <W(PB)>
-64.014

> <W(SA)>
2.230

> <Valence>
8.445

> <Coulomb>
1.306

> <VdW>
0.676

> <VdW6>
-8.929

> <VdW12>
9.605

> <Bond>
0.209

> <Angle>
3.066

> <Pdih>
5.170

> <Idih>
0.001

> <Tether>
0.000

$$$$
VeraChem MOL file


 22 21  0  0  0  0  0  0  0  0999 V2000     
   18.1842   16.0579   22.5496 C   0  0  0  0  0  0  0  0  0  0  0  0
   18.4628   15.5329   21.4895 O   0  5  0  0  0  0  0  0  0  0  0  0
   17.0448   16.2285   22.9365 O   0  0  0  0  0  0  0  0  0  0  0  0
   19.3296   16.5078   23.4521 C   0  0  0  0  0  0  0  0  0  0  0  0
   20.0679   15.6975   23.4743 H   0  0  0  0  0  0  0  0  0  0  0  0
   18.9477   16.6170   24.4744 H   0  0  0  0  0  0  0  0  0  0  0  0
   20.0151   17.8207   22.9923 C   0  0  0  0  0  0  0  0  0  0  0  0
   20.9018   17.9975   23.6158 H   0  0  0  0  0  0  0  0  0  0  0  0
   20.3714   17.6935   21.9615 H   0  0  0  0  0  0  0  0  0  0  0  0
   19.0727   19.0445   23.0856 C   0  0  0  0  0  0  0  0  0  0  0  0
   18.6602   19.1005   24.1023 H   0  0  0  0  0  0  0  0  0  0  0  0
   18.2158   18.9079   22.4116 H   0  0  0  0  0  0  0  0  0  0  0  0
   19.7721   20.3866   22.7646 C   0  0  0  0  0  0  0  0  0  0  0  0
   19.0689   21.2042   22.9739 H   0  0  0  0  0  0  0  0  0  0  0  0
   20.6247   20.5291   23.4425 H   0  0  0  0  0  0  0  0  0  0  0  0
   20.2478   20.4974   21.2984 C   0  0  0  0  0  0  0  0  0  0  0  0
   19.4058   20.3024   20.6200 H   0  0  0  0  0  0  0  0  0  0  0  0
   21.0106   19.7359   21.0895 H   0  0  0  0  0  0  0  0  0  0  0  0
   20.8353   21.8912   20.9983 C   0  0  0  0  0  0  0  0  0  0  0  0
   20.0858   22.6770   21.1599 H   0  0  0  0  0  0  0  0  0  0  0  0
   21.1711   21.9528   19.9550 H   0  0  0  0  0  0  0  0  0  0  0  0
   21.6973   22.1011   21.6450 H   0  0  0  0  0  0  0  0  0  0  0  0
  1  2  1  0  0  0  0
  1  3  2  0  0  0  0
  1  4  1  0  0  0  0
  4  5  1  0  0  0  0
  4  6  1  0  0  0  0
  4  7  1  0  0  0  0
  7  8  1  0  0  0  0
  7  9  1  0  0  0  0
  7 10  1  0  0  0  0
 10 11  1  0  0  0  0
 10 12  1  0  0  0  0
 10 13  1  0  0  0  0
 13 14  1  0  0  0  0
 13 15  1  0  0  0  0
 13 16  1  0  0  0  0
 16 17  1  0  0  0  0
 16 18  1  0  0  0  0
 16 19  1  0  0  0  0
 19 20  1  0  0  0  0
 19 21  1  0  0  0  0
 19 22  1  0  0  0  0
M  END
> <VConfSearch Rank>
297

> <Conf_Id>
85

> <Delta U+W>
0.707

> <U+W>
-52.452

> <U>
8.925

> <W>
-61.378

> <W(PB)>
-63.661

> <W(SA)>
2.283

> <Valence>
7.881

> <Coulomb>
0.349

> <VdW>
0.695

> <VdW6>
-8.049

> <VdW12>
8.743

> <Bond>
0.156

> <Angle>
2.660

> <Pdih>
5.064

> <Idih>
0.001

> <Tether>
0.000

$$$$
VeraChem MOL file


 22 21  0  0  0  0  0  0  0  0999 V2000     
   20.7579   19.7949   19.3010 C   0  0  0  0  0  0  0  0  0  0  0  0
   20.5114   18.9411   18.4721 O   0  5  0  0  0  0  0  0  0  0  0  0
   20.4821   20.9699   19.1580 O   0  0  0  0  0  0  0  0  0  0  0  0
   21.4736   19.3748   20.5818 C   0  0  0  0  0  0  0  0  0  0  0  0
   22.2823   20.0944   20.7552 H   0  0  0  0  0  0  0  0  0  0  0  0
   21.9469   18.3994   20.4157 H   0  0  0  0  0  0  0  0  0  0  0  0
   20.5554   19.3186   21.8306 C   0  0  0  0  0  0  0  0  0  0  0  0
   21.1852   19.1644   22.7158 H   0  0  0  0  0  0  0  0  0  0  0  0
   20.0521   20.2870   21.9576 H   0  0  0  0  0  0  0  0  0  0  0  0
   19.5055   18.1865   21.7468 C   0  0  0  0  0  0  0  0  0  0  0  0
   20.0181   17.2158   21.7065 H   0  0  0  0  0  0  0  0  0  0  0  0
   18.9497   18.2789   20.8037 H   0  0  0  0  0  0  0  0  0  0  0  0
   18.4818   18.1808   22.9099 C   0  0  0  0  0  0  0  0  0  0  0  0
   17.8981   19.1114   22.9022 H   0  0  0  0  0  0  0  0  0  0  0  0
   17.7614   17.3756   22.7110 H   0  0  0  0  0  0  0  0  0  0  0  0
   19.0944   17.9430   24.3128 C   0  0  0  0  0  0  0  0  0  0  0  0
   20.0197   17.3562   24.2303 H   0  0  0  0  0  0  0  0  0  0  0  0
   18.3967   17.3314   24.9014 H   0  0  0  0  0  0  0  0  0  0  0  0
   19.3566   19.2508   25.0924 C   0  0  0  0  0  0  0  0  0  0  0  0
   20.0603   19.9059   24.5664 H   0  0  0  0  0  0  0  0  0  0  0  0
   19.7791   19.0301   26.0811 H   0  0  0  0  0  0  0  0  0  0  0  0
   18.4233   19.8087   25.2433 H   0  0  0  0  0  0  0  0  0  0  0  0
  1  2  1  0  0  0  0
  1  3  2  0  0  0  0
  1  4  1  0  0  0  0
  4  5  1  0  0  0  0
  4  6  1  0  0  0  0
  4  7  1  0  0  0  0
  7  8  1  0  0  0  0
  7  9  1  0  0  0  0
  7 10  1  0  0  0  0
 10 11  1  0  0  0  0
 10 12  1  0  0  0  0
 10 13  1  0  0  0  0
 13 14  1  0  0  0  0
 13 15  1  0  0  0  0
 13 16  1  0  0  0  0
 16 17  1  0  0  0  0
 16 18  1  0  0  0  0
 16 19  1  0  0  0  0
 19 20  1  0  0  0  0
 19 21  1  0  0  0  0
 19 22  1  0  0  0  0
M  END
> <VConfSearch Rank>
298

> <Conf_Id>
82

> <Delta U+W>
3.438

> <U+W>
-49.721

> <U>
11.773

> <W>
-61.495

> <W(PB)>
-63.749

> <W(SA)>
2.254

> <Valence>
10.419

> <Coulomb>
0.565

> <VdW>
0.789

> <VdW6>
-8.847

> <VdW12>
9.636

> <Bond>
0.200

> <Angle>
3.187

> <Pdih>
7.032

> <Idih>
0.001

> <Tether>
0.000

$$$$
VeraChem MOL file


 22 21  0  0  0  0  0  0  0  0999 V2000     
   17.7064   16.9523   23.9304 C   0  0  0  0  0  0  0  0  0  0  0  0
   17.2680   17.5597   24.8875 O   0  5  0  0  0  0  0  0  0  0  0  0
   17.0096   16.3320   23.1516 O   0  0  0  0  0  0  0  0  0  0  0  0
   19.2166   16.9507   23.7097 C   0  0  0  0  0  0  0  0  0  0  0  0
   19.4740   16.1130   23.0503 H   0  0  0  0  0  0  0  0  0  0  0  0
   19.6880   16.7483   24.6786 H   0  0  0  0  0  0  0  0  0  0  0  0
   19.7731   18.2779   23.1314 C   0  0  0  0  0  0  0  0  0  0  0  0
   19.4680   19.1136   23.7763 H   0  0  0  0  0  0  0  0  0  0  0  0
   20.8692   18.2337   23.1584 H   0  0  0  0  0  0  0  0  0  0  0  0
   19.3075   18.5361   21.6797 C   0  0  0  0  0  0  0  0  0  0  0  0
   18.2119   18.4692   21.6349 H   0  0  0  0  0  0  0  0  0  0  0  0
   19.6900   17.7398   21.0268 H   0  0  0  0  0  0  0  0  0  0  0  0
   19.7290   19.9147   21.1120 C   0  0  0  0  0  0  0  0  0  0  0  0
   19.2960   20.0034   20.1063 H   0  0  0  0  0  0  0  0  0  0  0  0
   19.2743   20.7206   21.7042 H   0  0  0  0  0  0  0  0  0  0  0  0
   21.2589   20.1298   20.9981 C   0  0  0  0  0  0  0  0  0  0  0  0
   21.4652   20.7089   20.0874 H   0  0  0  0  0  0  0  0  0  0  0  0
   21.7709   19.1662   20.8694 H   0  0  0  0  0  0  0  0  0  0  0  0
   21.8567   20.8985   22.1976 C   0  0  0  0  0  0  0  0  0  0  0  0
   21.4016   21.8933   22.2892 H   0  0  0  0  0  0  0  0  0  0  0  0
   22.9378   21.0351   22.0657 H   0  0  0  0  0  0  0  0  0  0  0  0
   21.6994   20.3670   23.1429 H   0  0  0  0  0  0  0  0  0  0  0  0
  1  2  1  0  0  0  0
  1  3  2  0  0  0  0
  1  4  1  0  0  0  0
  4  5  1  0  0  0  0
  4  6  1  0  0  0  0
  4  7  1  0  0  0  0
  7  8  1  0  0  0  0
  7  9  1  0  0  0  0
  7 10  1  0  0  0  0
 10 11  1  0  0  0  0
 10 12  1  0  0  0  0
 10 13  1  0  0  0  0
 13 14  1  0  0  0  0
 13 15  1  0  0  0  0
 13 16  1  0  0  0  0
 16 17  1  0  0  0  0
 16 18  1  0  0  0  0
 16 19  1  0  0  0  0
 19 20  1  0  0  0  0
 19 21  1  0  0  0  0
 19 22  1  0  0  0  0
M  END
> <VConfSearch Rank>
299

> <Conf_Id>
94

> <Delta U+W>
3.471

> <U+W>
-49.688

> <U>
11.773

> <W>
-61.461

> <W(PB)>
-63.710

> <W(SA)>
2.248

> <Valence>
10.419

> <Coulomb>
0.566

> <VdW>
0.789

> <VdW6>
-8.847

> <VdW12>
9.636

> <Bond>
0.200

> <Angle>
3.187

> <Pdih>
7.032

> <Idih>
0.001

> <Tether>
0.000

$$$$
VeraChem MOL file


 22 21  0  0  0  0  0  0  0  0999 V2000     
   17.9695   16.6986   23.7631 C   0  0  0  0  0  0  0  0  0  0  0  0
   17.7850   15.5336   23.4707 O   0  5  0  0  0  0  0  0  0  0  0  0
   17.1493   17.3853   24.3395 O   0  0  0  0  0  0  0  0  0  0  0  0
   19.2953   17.3386   23.3675 C   0  0  0  0  0  0  0  0  0  0  0  0
   20.0725   16.5663   23.4079 H   0  0  0  0  0  0  0  0  0  0  0  0
   19.5427   18.0899   24.1261 H   0  0  0  0  0  0  0  0  0  0  0  0
   19.2538   17.9826   21.9575 C   0  0  0  0  0  0  0  0  0  0  0  0
   18.9236   17.2253   21.2332 H   0  0  0  0  0  0  0  0  0  0  0  0
   18.4930   18.7742   21.9372 H   0  0  0  0  0  0  0  0  0  0  0  0
   20.6209   18.5458   21.4947 C   0  0  0  0  0  0  0  0  0  0  0  0
   20.5176   18.9333   20.4726 H   0  0  0  0  0  0  0  0  0  0  0  0
   21.3404   17.7186   21.4273 H   0  0  0  0  0  0  0  0  0  0  0  0
   21.2215   19.6511   22.4029 C   0  0  0  0  0  0  0  0  0  0  0  0
   21.4775   19.2198   23.3795 H   0  0  0  0  0  0  0  0  0  0  0  0
   22.1735   19.9830   21.9670 H   0  0  0  0  0  0  0  0  0  0  0  0
   20.3158   20.8878   22.6225 C   0  0  0  0  0  0  0  0  0  0  0  0
   20.8316   21.5842   23.2977 H   0  0  0  0  0  0  0  0  0  0  0  0
   19.3919   20.5933   23.1378 H   0  0  0  0  0  0  0  0  0  0  0  0
   19.9691   21.6298   21.3136 C   0  0  0  0  0  0  0  0  0  0  0  0
   20.8796   21.9195   20.7733 H   0  0  0  0  0  0  0  0  0  0  0  0
   19.3980   22.5421   21.5288 H   0  0  0  0  0  0  0  0  0  0  0  0
   19.3591   21.0038   20.6503 H   0  0  0  0  0  0  0  0  0  0  0  0
  1  2  1  0  0  0  0
  1  3  2  0  0  0  0
  1  4  1  0  0  0  0
  4  5  1  0  0  0  0
  4  6  1  0  0  0  0
  4  7  1  0  0  0  0
  7  8  1  0  0  0  0
  7  9  1  0  0  0  0
  7 10  1  0  0  0  0
 10 11  1  0  0  0  0
 10 12  1  0  0  0  0
 10 13  1  0  0  0  0
 13 14  1  0  0  0  0
 13 15  1  0  0  0  0
 13 16  1  0  0  0  0
 16 17  1  0  0  0  0
 16 18  1  0  0  0  0
 16 19  1  0  0  0  0
 19 20  1  0  0  0  0
 19 21  1  0  0  0  0
 19 22  1  0  0  0  0
M  END
> <VConfSearch Rank>
300

> <Conf_Id>
56

> <Delta U+W>
0.853

> <U+W>
-52.307

> <U>
8.874

> <W>
-61.181

> <W(PB)>
-63.413

> <W(SA)>
2.232

> <Valence>
8.479

> <Coulomb>
-0.357

> <VdW>
0.753

> <VdW6>
-9.081

> <VdW12>
9.833

> <Bond>
0.221

> <Angle>
3.208

> <Pdih>
5.050

> <Idih>
0.000

> <Tether>
0.000

$$$$
VeraChem MOL file


 22 21  0  0  0  0  0  0  0  0999 V2000     
   16.1770   19.0252   20.3925 C   0  0  0  0  0  0  0  0  0  0  0  0
   16.5801   18.4738   19.3866 O   0  5  0  0  0  0  0  0  0  0  0  0
   15.0217   19.3698   20.5425 O   0  0  0  0  0  0  0  0  0  0  0  0
   17.1458   19.3126   21.5407 C   0  0  0  0  0  0  0  0  0  0  0  0
   16.7451   18.8240   22.4366 H   0  0  0  0  0  0  0  0  0  0  0  0
   17.1216   20.3928   21.7263 H   0  0  0  0  0  0  0  0  0  0  0  0
   18.6092   18.8539   21.3033 C   0  0  0  0  0  0  0  0  0  0  0  0
   18.6256   17.7720   21.1118 H   0  0  0  0  0  0  0  0  0  0  0  0
   19.0025   19.3424   20.4010 H   0  0  0  0  0  0  0  0  0  0  0  0
   19.5166   19.1819   22.5090 C   0  0  0  0  0  0  0  0  0  0  0  0
   19.1214   18.6925   23.4098 H   0  0  0  0  0  0  0  0  0  0  0  0
   19.4985   20.2640   22.6985 H   0  0  0  0  0  0  0  0  0  0  0  0
   20.9718   18.7250   22.2707 C   0  0  0  0  0  0  0  0  0  0  0  0
   20.9904   17.6429   22.0810 H   0  0  0  0  0  0  0  0  0  0  0  0
   21.3674   19.2142   21.3700 H   0  0  0  0  0  0  0  0  0  0  0  0
   21.8791   19.0524   23.4752 C   0  0  0  0  0  0  0  0  0  0  0  0
   21.4876   18.5630   24.3778 H   0  0  0  0  0  0  0  0  0  0  0  0
   21.8645   20.1343   23.6668 H   0  0  0  0  0  0  0  0  0  0  0  0
   23.3314   18.5945   23.2333 C   0  0  0  0  0  0  0  0  0  0  0  0
   23.3792   17.5099   23.0698 H   0  0  0  0  0  0  0  0  0  0  0  0
   23.9621   18.8350   24.0990 H   0  0  0  0  0  0  0  0  0  0  0  0
   23.7590   19.0931   22.3535 H   0  0  0  0  0  0  0  0  0  0  0  0
  1  2  1  0  0  0  0
  1  3  2  0  0  0  0
  1  4  1  0  0  0  0
  4  5  1  0  0  0  0
  4  6  1  0  0  0  0
  4  7  1  0  0  0  0
  7  8  1  0  0  0  0
  7  9  1  0  0  0  0
  7 10  1  0  0  0  0
 10 11  1  0  0  0  0
 10 12  1  0  0  0  0
 10 13  1  0  0  0  0
 13 14  1  0  0  0  0
 13 15  1  0  0  0  0
 13 16  1  0  0  0  0
 16 17  1  0  0  0  0
 16 18  1  0  0  0  0
 16 19  1  0  0  0  0
 19 20  1  0  0  0  0
 19 21  1  0  0  0  0
 19 22  1  0  0  0  0
M  END
> <VConfSearch Rank>
301

> <Conf_Id>
0

> <Delta U+W>
0.000

> <U+W>
-53.159

> <U>
6.763

> <W>
-59.922

> <W(PB)>
-62.256

> <W(SA)>
2.334

> <Valence>
7.600

> <Coulomb>
-2.139

> <VdW>
1.302

> <VdW6>
-6.786

> <VdW12>
8.088

> <Bond>
0.134

> <Angle>
2.720

> <Pdih>
4.746

> <Idih>
0.000

> <Tether>
0.000

$$$$
VeraChem MOL file


 22 21  0  0  0  0  0  0  0  0999 V2000     
   21.4077   22.4323   23.4609 C   0  0  0  0  0  0  0  0  0  0  0  0
   21.6604   23.2280   22.5780 O   0  5  0  0  0  0  0  0  0  0  0  0
   22.0603   22.3287   24.4806 O   0  0  0  0  0  0  0  0  0  0  0  0
   20.2192   21.4971   23.2686 C   0  0  0  0  0  0  0  0  0  0  0  0
   19.4574   22.0294   22.6865 H   0  0  0  0  0  0  0  0  0  0  0  0
   19.7867   21.2885   24.2546 H   0  0  0  0  0  0  0  0  0  0  0  0
   20.6033   20.1734   22.5626 C   0  0  0  0  0  0  0  0  0  0  0  0
   21.0465   20.4001   21.5829 H   0  0  0  0  0  0  0  0  0  0  0  0
   21.3758   19.6592   23.1510 H   0  0  0  0  0  0  0  0  0  0  0  0
   19.3836   19.2445   22.3798 C   0  0  0  0  0  0  0  0  0  0  0  0
   18.6128   19.7620   21.7923 H   0  0  0  0  0  0  0  0  0  0  0  0
   18.9421   19.0210   23.3608 H   0  0  0  0  0  0  0  0  0  0  0  0
   19.7695   17.9259   21.6758 C   0  0  0  0  0  0  0  0  0  0  0  0
   20.2110   18.1490   20.6948 H   0  0  0  0  0  0  0  0  0  0  0  0
   20.5403   17.4081   22.2630 H   0  0  0  0  0  0  0  0  0  0  0  0
   18.5510   16.9969   21.4928 C   0  0  0  0  0  0  0  0  0  0  0  0
   17.7784   17.5108   20.9041 H   0  0  0  0  0  0  0  0  0  0  0  0
   18.1078   16.7698   22.4723 H   0  0  0  0  0  0  0  0  0  0  0  0
   18.9405   15.6813   20.7894 C   0  0  0  0  0  0  0  0  0  0  0  0
   19.6898   15.1307   21.3732 H   0  0  0  0  0  0  0  0  0  0  0  0
   19.3582   15.8772   19.7932 H   0  0  0  0  0  0  0  0  0  0  0  0
   18.0628   15.0333   20.6675 H   0  0  0  0  0  0  0  0  0  0  0  0
  1  2  1  0  0  0  0
  1  3  2  0  0  0  0
  1  4  1  0  0  0  0
  4  5  1  0  0  0  0
  4  6  1  0  0  0  0
  4  7  1  0  0  0  0
  7  8  1  0  0  0  0
  7  9  1  0  0  0  0
  7 10  1  0  0  0  0
 10 11  1  0  0  0  0
 10 12  1  0  0  0  0
 10 13  1  0  0  0  0
 13 14  1  0  0  0  0
 13 15  1  0  0  0  0
 13 16  1  0  0  0  0
 16 17  1  0  0  0  0
 16 18  1  0  0  0  0
 16 19  1  0  0  0  0
 19 20  1  0  0  0  0
 19 21  1  0  0  0  0
 19 22  1  0  0  0  0
M  END
> <VConfSearch Rank>
302

> <Conf_Id>
10

> <Delta U+W>
-1.291

> <U+W>
-54.451

> <U>
5.779

> <W>
-60.230

> <W(PB)>
-62.557

> <W(SA)>
2.328

> <Valence>
7.101

> <Coulomb>
-2.079

> <VdW>
0.757

> <VdW6>
-6.496

> <VdW12>
7.253

> <Bond>
0.100

> <Angle>
2.262

> <Pdih>
4.738

> <Idih>
0.001

> <Tether>
0.000

$$$$
VeraChem MOL file


 22 21  0  0  0  0  0  0  0  0999 V2000     
   21.7090   15.5156   21.9250 C   0  0  0  0  0  0  0  0  0  0  0  0
   21.5318   14.8060   22.8953 O   0  5  0  0  0  0  0  0  0  0  0  0
   21.9528   15.0880   20.8141 O   0  0  0  0  0  0  0  0  0  0  0  0
   21.5984   17.0252   22.1072 C   0  0  0  0  0  0  0  0  0  0  0  0
   22.2900   17.5048   21.4040 H   0  0  0  0  0  0  0  0  0  0  0  0
   21.9417   17.2723   23.1190 H   0  0  0  0  0  0  0  0  0  0  0  0
   20.1598   17.5543   21.8867 C   0  0  0  0  0  0  0  0  0  0  0  0
   19.8265   17.2870   20.8743 H   0  0  0  0  0  0  0  0  0  0  0  0
   19.4779   17.0554   22.5894 H   0  0  0  0  0  0  0  0  0  0  0  0
   20.0746   19.0843   22.0768 C   0  0  0  0  0  0  0  0  0  0  0  0
   20.7556   19.5803   21.3718 H   0  0  0  0  0  0  0  0  0  0  0  0
   20.4163   19.3407   23.0881 H   0  0  0  0  0  0  0  0  0  0  0  0
   18.6359   19.6069   21.8593 C   0  0  0  0  0  0  0  0  0  0  0  0
   18.2830   19.2816   20.8711 H   0  0  0  0  0  0  0  0  0  0  0  0
   17.9608   19.1508   22.5963 H   0  0  0  0  0  0  0  0  0  0  0  0
   18.5228   21.1472   21.9382 C   0  0  0  0  0  0  0  0  0  0  0  0
   17.5018   21.4404   21.6576 H   0  0  0  0  0  0  0  0  0  0  0  0
   19.1921   21.6069   21.1979 H   0  0  0  0  0  0  0  0  0  0  0  0
   18.8340   21.7119   23.3412 C   0  0  0  0  0  0  0  0  0  0  0  0
   18.6538   22.7944   23.3678 H   0  0  0  0  0  0  0  0  0  0  0  0
   19.8822   21.5432   23.6178 H   0  0  0  0  0  0  0  0  0  0  0  0
   18.1967   21.2445   24.1032 H   0  0  0  0  0  0  0  0  0  0  0  0
  1  2  1  0  0  0  0
  1  3  2  0  0  0  0
  1  4  1  0  0  0  0
  4  5  1  0  0  0  0
  4  6  1  0  0  0  0
  4  7  1  0  0  0  0
  7  8  1  0  0  0  0
  7  9  1  0  0  0  0
  7 10  1  0  0  0  0
 10 11  1  0  0  0  0
 10 12  1  0  0  0  0
 10 13  1  0  0  0  0
 13 14  1  0  0  0  0
 13 15  1  0  0  0  0
 13 16  1  0  0  0  0
 16 17  1  0  0  0  0
 16 18  1  0  0  0  0
 16 19  1  0  0  0  0
 19 20  1  0  0  0  0
 19 21  1  0  0  0  0
 19 22  1  0  0  0  0
M  END
> <VConfSearch Rank>
303

> <Conf_Id>
37

> <Delta U+W>
-0.345

> <U+W>
-53.504

> <U>
6.751

> <W>
-60.255

> <W(PB)>
-62.592

> <W(SA)>
2.336

> <Valence>
7.602

> <Coulomb>
-1.744

> <VdW>
0.894

> <VdW6>
-7.110

> <VdW12>
8.004

> <Bond>
0.131

> <Angle>
2.489

> <Pdih>
4.982

> <Idih>
0.001

> <Tether>
0.000

$$$$
VeraChem MOL file


 22 21  0  0  0  0  0  0  0  0999 V2000     
   23.0713   20.6749   20.9409 C   0  0  0  0  0  0  0  0  0  0  0  0
   23.9652   19.8736   20.7533 O   0  5  0  0  0  0  0  0  0  0  0  0
   23.2615   21.8433   21.2152 O   0  0  0  0  0  0  0  0  0  0  0  0
   21.6316   20.1822   20.8483 C   0  0  0  0  0  0  0  0  0  0  0  0
   21.5922   19.3841   20.0972 H   0  0  0  0  0  0  0  0  0  0  0  0
   21.0122   21.0076   20.4771 H   0  0  0  0  0  0  0  0  0  0  0  0
   21.0827   19.6693   22.2024 C   0  0  0  0  0  0  0  0  0  0  0  0
   21.7206   18.8519   22.5665 H   0  0  0  0  0  0  0  0  0  0  0  0
   21.1417   20.4759   22.9464 H   0  0  0  0  0  0  0  0  0  0  0  0
   19.6242   19.1766   22.0821 C   0  0  0  0  0  0  0  0  0  0  0  0
   19.5755   18.3768   21.3318 H   0  0  0  0  0  0  0  0  0  0  0  0
   18.9886   19.9963   21.7202 H   0  0  0  0  0  0  0  0  0  0  0  0
   19.0823   18.6621   23.4356 C   0  0  0  0  0  0  0  0  0  0  0  0
   19.6853   17.8090   23.7757 H   0  0  0  0  0  0  0  0  0  0  0  0
   19.2034   19.4498   24.1918 H   0  0  0  0  0  0  0  0  0  0  0  0
   17.5915   18.2544   23.3860 C   0  0  0  0  0  0  0  0  0  0  0  0
   16.9843   19.1072   23.0523 H   0  0  0  0  0  0  0  0  0  0  0  0
   17.2573   18.0156   24.4051 H   0  0  0  0  0  0  0  0  0  0  0  0
   17.3207   17.0365   22.4762 C   0  0  0  0  0  0  0  0  0  0  0  0
   17.9396   16.1795   22.7724 H   0  0  0  0  0  0  0  0  0  0  0  0
   17.5317   17.2670   21.4246 H   0  0  0  0  0  0  0  0  0  0  0  0
   16.2681   16.7328   22.5447 H   0  0  0  0  0  0  0  0  0  0  0  0
  1  2  1  0  0  0  0
  1  3  2  0  0  0  0
  1  4  1  0  0  0  0
  4  5  1  0  0  0  0
  4  6  1  0  0  0  0
  4  7  1  0  0  0  0
  7  8  1  0  0  0  0
  7  9  1  0  0  0  0
  7 10  1  0  0  0  0
 10 11  1  0  0  0  0
 10 12  1  0  0  0  0
 10 13  1  0  0  0  0
 13 14  1  0  0  0  0
 13 15  1  0  0  0  0
 13 16  1  0  0  0  0
 16 17  1  0  0  0  0
 16 18  1  0  0  0  0
 16 19  1  0  0  0  0
 19 20  1  0  0  0  0
 19 21  1  0  0  0  0
 19 22  1  0  0  0  0
M  END
> <VConfSearch Rank>
304

> <Conf_Id>
38

> <Delta U+W>
-0.439

> <U+W>
-53.598

> <U>
6.751

> <W>
-60.350

> <W(PB)>
-62.659

> <W(SA)>
2.309

> <Valence>
7.602

> <Coulomb>
-1.744

> <VdW>
0.893

> <VdW6>
-7.110

> <VdW12>
8.004

> <Bond>
0.131

> <Angle>
2.489

> <Pdih>
4.981

> <Idih>
0.001

> <Tether>
0.000

$$$$
VeraChem MOL file


 22 21  0  0  0  0  0  0  0  0999 V2000     
   23.3140   20.5464   22.2576 C   0  0  0  0  0  0  0  0  0  0  0  0
   23.5193   21.7420   22.1866 O   0  5  0  0  0  0  0  0  0  0  0  0
   24.1465   19.7037   21.9870 O   0  0  0  0  0  0  0  0  0  0  0  0
   21.9284   20.0782   22.6880 C   0  0  0  0  0  0  0  0  0  0  0  0
   21.5220   20.8177   23.3882 H   0  0  0  0  0  0  0  0  0  0  0  0
   22.0514   19.1399   23.2403 H   0  0  0  0  0  0  0  0  0  0  0  0
   20.9614   19.8871   21.4905 C   0  0  0  0  0  0  0  0  0  0  0  0
   20.9393   20.8170   20.9056 H   0  0  0  0  0  0  0  0  0  0  0  0
   21.3543   19.1094   20.8211 H   0  0  0  0  0  0  0  0  0  0  0  0
   19.5147   19.5335   21.9109 C   0  0  0  0  0  0  0  0  0  0  0  0
   18.8842   19.5604   21.0131 H   0  0  0  0  0  0  0  0  0  0  0  0
   19.1280   20.3085   22.5866 H   0  0  0  0  0  0  0  0  0  0  0  0
   19.3916   18.1443   22.5840 C   0  0  0  0  0  0  0  0  0  0  0  0
   19.7800   17.3696   21.9089 H   0  0  0  0  0  0  0  0  0  0  0  0
   20.0192   18.1170   23.4837 H   0  0  0  0  0  0  0  0  0  0  0  0
   17.9449   17.7895   23.0000 C   0  0  0  0  0  0  0  0  0  0  0  0
   17.5486   18.5681   23.6664 H   0  0  0  0  0  0  0  0  0  0  0  0
   17.9659   16.8608   23.5867 H   0  0  0  0  0  0  0  0  0  0  0  0
   16.9910   17.5955   21.8012 C   0  0  0  0  0  0  0  0  0  0  0  0
   16.8406   18.5328   21.2515 H   0  0  0  0  0  0  0  0  0  0  0  0
   16.0070   17.2522   22.1460 H   0  0  0  0  0  0  0  0  0  0  0  0
   17.3847   16.8454   21.1030 H   0  0  0  0  0  0  0  0  0  0  0  0
  1  2  1  0  0  0  0
  1  3  2  0  0  0  0
  1  4  1  0  0  0  0
  4  5  1  0  0  0  0
  4  6  1  0  0  0  0
  4  7  1  0  0  0  0
  7  8  1  0  0  0  0
  7  9  1  0  0  0  0
  7 10  1  0  0  0  0
 10 11  1  0  0  0  0
 10 12  1  0  0  0  0
 10 13  1  0  0  0  0
 13 14  1  0  0  0  0
 13 15  1  0  0  0  0
 13 16  1  0  0  0  0
 16 17  1  0  0  0  0
 16 18  1  0  0  0  0
 16 19  1  0  0  0  0
 19 20  1  0  0  0  0
 19 21  1  0  0  0  0
 19 22  1  0  0  0  0
M  END
> <VConfSearch Rank>
305

> <Conf_Id>
60

> <Delta U+W>
0.386

> <U+W>
-52.773

> <U>
7.689

> <W>
-60.463

> <W(PB)>
-62.772

> <W(SA)>
2.309

> <Valence>
8.197

> <Coulomb>
-1.561

> <VdW>
1.053

> <VdW6>
-7.737

> <VdW12>
8.790

> <Bond>
0.181

> <Angle>
2.780

> <Pdih>
5.235

> <Idih>
0.001

> <Tether>
0.000

$$$$
VeraChem MOL file


 22 21  0  0  0  0  0  0  0  0999 V2000     
   19.5927   16.3481   24.9595 C   0  0  0  0  0  0  0  0  0  0  0  0
   18.4498   16.2855   25.3674 O   0  5  0  0  0  0  0  0  0  0  0  0
   20.5503   15.9197   25.5728 O   0  0  0  0  0  0  0  0  0  0  0  0
   19.8418   17.0215   23.6146 C   0  0  0  0  0  0  0  0  0  0  0  0
   18.9744   16.8199   22.9762 H   0  0  0  0  0  0  0  0  0  0  0  0
   20.7089   16.5388   23.1481 H   0  0  0  0  0  0  0  0  0  0  0  0
   20.0845   18.5479   23.7442 C   0  0  0  0  0  0  0  0  0  0  0  0
   19.1910   19.0276   24.1671 H   0  0  0  0  0  0  0  0  0  0  0  0
   20.8962   18.7140   24.4660 H   0  0  0  0  0  0  0  0  0  0  0  0
   20.4633   19.2321   22.4089 C   0  0  0  0  0  0  0  0  0  0  0  0
   21.3518   18.7449   21.9848 H   0  0  0  0  0  0  0  0  0  0  0  0
   20.7511   20.2682   22.6282 H   0  0  0  0  0  0  0  0  0  0  0  0
   19.3169   19.2264   21.3677 C   0  0  0  0  0  0  0  0  0  0  0  0
   19.0302   18.1909   21.1451 H   0  0  0  0  0  0  0  0  0  0  0  0
   18.4279   19.7120   21.7926 H   0  0  0  0  0  0  0  0  0  0  0  0
   19.6945   19.9144   20.0350 C   0  0  0  0  0  0  0  0  0  0  0  0
   18.8845   19.7471   19.3116 H   0  0  0  0  0  0  0  0  0  0  0  0
   20.5904   19.4389   19.6124 H   0  0  0  0  0  0  0  0  0  0  0  0
   19.9280   21.4346   20.1729 C   0  0  0  0  0  0  0  0  0  0  0  0
   19.0573   21.9264   20.6258 H   0  0  0  0  0  0  0  0  0  0  0  0
   20.0968   21.8874   19.1873 H   0  0  0  0  0  0  0  0  0  0  0  0
   20.8073   21.6516   20.7918 H   0  0  0  0  0  0  0  0  0  0  0  0
  1  2  1  0  0  0  0
  1  3  2  0  0  0  0
  1  4  1  0  0  0  0
  4  5  1  0  0  0  0
  4  6  1  0  0  0  0
  4  7  1  0  0  0  0
  7  8  1  0  0  0  0
  7  9  1  0  0  0  0
  7 10  1  0  0  0  0
 10 11  1  0  0  0  0
 10 12  1  0  0  0  0
 10 13  1  0  0  0  0
 13 14  1  0  0  0  0
 13 15  1  0  0  0  0
 13 16  1  0  0  0  0
 16 17  1  0  0  0  0
 16 18  1  0  0  0  0
 16 19  1  0  0  0  0
 19 20  1  0  0  0  0
 19 21  1  0  0  0  0
 19 22  1  0  0  0  0
M  END
> <VConfSearch Rank>
306

> <Conf_Id>
28

> <Delta U+W>
0.351

> <U+W>
-52.808

> <U>
7.689

> <W>
-60.498

> <W(PB)>
-62.768

> <W(SA)>
2.270

> <Valence>
8.197

> <Coulomb>
-1.561

> <VdW>
1.053

> <VdW6>
-7.737

> <VdW12>
8.791

> <Bond>
0.181

> <Angle>
2.780

> <Pdih>
5.235

> <Idih>
0.001

> <Tether>
0.000

$$$$
VeraChem MOL file


 22 21  0  0  0  0  0  0  0  0999 V2000     
   19.2763   16.4352   25.0076 C   0  0  0  0  0  0  0  0  0  0  0  0
   18.1943   15.8823   25.0102 O   0  5  0  0  0  0  0  0  0  0  0  0
   20.3241   15.8649   25.2388 O   0  0  0  0  0  0  0  0  0  0  0  0
   19.3240   17.9226   24.6765 C   0  0  0  0  0  0  0  0  0  0  0  0
   20.1561   18.3693   25.2337 H   0  0  0  0  0  0  0  0  0  0  0  0
   18.4006   18.3837   25.0473 H   0  0  0  0  0  0  0  0  0  0  0  0
   19.4880   18.1966   23.1611 C   0  0  0  0  0  0  0  0  0  0  0  0
   20.4070   17.7089   22.8102 H   0  0  0  0  0  0  0  0  0  0  0  0
   18.6523   17.7356   22.6167 H   0  0  0  0  0  0  0  0  0  0  0  0
   19.5381   19.7114   22.8546 C   0  0  0  0  0  0  0  0  0  0  0  0
   20.4048   20.1628   23.3567 H   0  0  0  0  0  0  0  0  0  0  0  0
   18.6468   20.1915   23.2812 H   0  0  0  0  0  0  0  0  0  0  0  0
   19.5907   20.0327   21.3421 C   0  0  0  0  0  0  0  0  0  0  0  0
   18.7221   19.5848   20.8403 H   0  0  0  0  0  0  0  0  0  0  0  0
   19.4969   21.1197   21.2139 H   0  0  0  0  0  0  0  0  0  0  0  0
   20.8912   19.5575   20.6557 C   0  0  0  0  0  0  0  0  0  0  0  0
   20.9665   18.4632   20.7037 H   0  0  0  0  0  0  0  0  0  0  0  0
   21.7617   19.9628   21.1896 H   0  0  0  0  0  0  0  0  0  0  0  0
   20.9450   19.9991   19.1793 C   0  0  0  0  0  0  0  0  0  0  0  0
   20.9107   21.0931   19.0944 H   0  0  0  0  0  0  0  0  0  0  0  0
   20.0995   19.5846   18.6147 H   0  0  0  0  0  0  0  0  0  0  0  0
   21.8721   19.6515   18.7052 H   0  0  0  0  0  0  0  0  0  0  0  0
  1  2  1  0  0  0  0
  1  3  2  0  0  0  0
  1  4  1  0  0  0  0
  4  5  1  0  0  0  0
  4  6  1  0  0  0  0
  4  7  1  0  0  0  0
  7  8  1  0  0  0  0
  7  9  1  0  0  0  0
  7 10  1  0  0  0  0
 10 11  1  0  0  0  0
 10 12  1  0  0  0  0
 10 13  1  0  0  0  0
 13 14  1  0  0  0  0
 13 15  1  0  0  0  0
 13 16  1  0  0  0  0
 16 17  1  0  0  0  0
 16 18  1  0  0  0  0
 16 19  1  0  0  0  0
 19 20  1  0  0  0  0
 19 21  1  0  0  0  0
 19 22  1  0  0  0  0
M  END
> <VConfSearch Rank>
307

> <Conf_Id>
50

> <Delta U+W>
-0.486

> <U+W>
-53.646

> <U>
7.026

> <W>
-60.672

> <W(PB)>
-62.964

> <W(SA)>
2.292

> <Valence>
7.637

> <Coulomb>
-1.488

> <VdW>
0.877

> <VdW6>
-7.165

> <VdW12>
8.043

> <Bond>
0.134

> <Angle>
2.513

> <Pdih>
4.990

> <Idih>
0.001

> <Tether>
0.000

$$$$
VeraChem MOL file


 22 21  0  0  0  0  0  0  0  0999 V2000     
   18.6273   15.4828   21.7918 C   0  0  0  0  0  0  0  0  0  0  0  0
   18.4664   15.1043   20.6484 O   0  5  0  0  0  0  0  0  0  0  0  0
   17.8694   15.2141   22.7027 O   0  0  0  0  0  0  0  0  0  0  0  0
   19.8361   16.3606   22.0961 C   0  0  0  0  0  0  0  0  0  0  0  0
   20.6529   16.0581   21.4298 H   0  0  0  0  0  0  0  0  0  0  0  0
   20.1601   16.1504   23.1225 H   0  0  0  0  0  0  0  0  0  0  0  0
   19.5401   17.8714   21.9285 C   0  0  0  0  0  0  0  0  0  0  0  0
   19.2085   18.0639   20.8989 H   0  0  0  0  0  0  0  0  0  0  0  0
   18.7074   18.1449   22.5898 H   0  0  0  0  0  0  0  0  0  0  0  0
   20.7808   18.7374   22.2476 C   0  0  0  0  0  0  0  0  0  0  0  0
   21.6226   18.3963   21.6297 H   0  0  0  0  0  0  0  0  0  0  0  0
   21.0807   18.5845   23.2934 H   0  0  0  0  0  0  0  0  0  0  0  0
   20.5623   20.2467   21.9871 C   0  0  0  0  0  0  0  0  0  0  0  0
   21.5223   20.7648   22.1173 H   0  0  0  0  0  0  0  0  0  0  0  0
   20.2661   20.4005   20.9404 H   0  0  0  0  0  0  0  0  0  0  0  0
   19.5149   20.8890   22.9245 C   0  0  0  0  0  0  0  0  0  0  0  0
   19.7829   20.6900   23.9713 H   0  0  0  0  0  0  0  0  0  0  0  0
   18.5282   20.4385   22.7548 H   0  0  0  0  0  0  0  0  0  0  0  0
   19.4155   22.4116   22.7021 C   0  0  0  0  0  0  0  0  0  0  0  0
   19.1218   22.6389   21.6689 H   0  0  0  0  0  0  0  0  0  0  0  0
   20.3775   22.9018   22.9010 H   0  0  0  0  0  0  0  0  0  0  0  0
   18.6660   22.8522   23.3723 H   0  0  0  0  0  0  0  0  0  0  0  0
  1  2  1  0  0  0  0
  1  3  2  0  0  0  0
  1  4  1  0  0  0  0
  4  5  1  0  0  0  0
  4  6  1  0  0  0  0
  4  7  1  0  0  0  0
  7  8  1  0  0  0  0
  7  9  1  0  0  0  0
  7 10  1  0  0  0  0
 10 11  1  0  0  0  0
 10 12  1  0  0  0  0
 10 13  1  0  0  0  0
 13 14  1  0  0  0  0
 13 15  1  0  0  0  0
 13 16  1  0  0  0  0
 16 17  1  0  0  0  0
 16 18  1  0  0  0  0
 16 19  1  0  0  0  0
 19 20  1  0  0  0  0
 19 21  1  0  0  0  0
 19 22  1  0  0  0  0
M  END
> <VConfSearch Rank>
308

> <Conf_Id>
51

> <Delta U+W>
-0.517

> <U+W>
-53.677

> <U>
7.026

> <W>
-60.703

> <W(PB)>
-63.007

> <W(SA)>
2.304

> <Valence>
7.638

> <Coulomb>
-1.488

> <VdW>
0.877

> <VdW6>
-7.165

> <VdW12>
8.042

> <Bond>
0.134

> <Angle>
2.513

> <Pdih>
4.990

> <Idih>
0.001

> <Tether>
0.000

$$$$
VeraChem MOL file


 22 21  0  0  0  0  0  0  0  0999 V2000     
   21.8675   20.7736   24.5534 C   0  0  0  0  0  0  0  0  0  0  0  0
   21.3704   20.8624   25.6588 O   0  5  0  0  0  0  0  0  0  0  0  0
   22.9513   20.2659   24.3424 O   0  0  0  0  0  0  0  0  0  0  0  0
   21.0953   21.3490   23.3695 C   0  0  0  0  0  0  0  0  0  0  0  0
   21.7935   21.5042   22.5380 H   0  0  0  0  0  0  0  0  0  0  0  0
   20.7301   22.3393   23.6663 H   0  0  0  0  0  0  0  0  0  0  0  0
   19.9011   20.4730   22.9097 C   0  0  0  0  0  0  0  0  0  0  0  0
   19.2257   20.3031   23.7598 H   0  0  0  0  0  0  0  0  0  0  0  0
   19.3253   21.0238   22.1536 H   0  0  0  0  0  0  0  0  0  0  0  0
   20.3509   19.1176   22.3197 C   0  0  0  0  0  0  0  0  0  0  0  0
   20.9133   18.5529   23.0762 H   0  0  0  0  0  0  0  0  0  0  0  0
   21.0359   19.2926   21.4788 H   0  0  0  0  0  0  0  0  0  0  0  0
   19.1490   18.2757   21.8399 C   0  0  0  0  0  0  0  0  0  0  0  0
   18.4644   18.1011   22.6813 H   0  0  0  0  0  0  0  0  0  0  0  0
   18.5866   18.8371   21.0812 H   0  0  0  0  0  0  0  0  0  0  0  0
   19.5973   16.9217   21.2513 C   0  0  0  0  0  0  0  0  0  0  0  0
   20.1588   16.3565   22.0081 H   0  0  0  0  0  0  0  0  0  0  0  0
   20.2810   17.0924   20.4081 H   0  0  0  0  0  0  0  0  0  0  0  0
   18.3944   16.0835   20.7739 C   0  0  0  0  0  0  0  0  0  0  0  0
   17.7093   15.8709   21.6050 H   0  0  0  0  0  0  0  0  0  0  0  0
   18.7313   15.1248   20.3586 H   0  0  0  0  0  0  0  0  0  0  0  0
   17.8324   16.6124   19.9929 H   0  0  0  0  0  0  0  0  0  0  0  0
  1  2  1  0  0  0  0
  1  3  2  0  0  0  0
  1  4  1  0  0  0  0
  4  5  1  0  0  0  0
  4  6  1  0  0  0  0
  4  7  1  0  0  0  0
  7  8  1  0  0  0  0
  7  9  1  0  0  0  0
  7 10  1  0  0  0  0
 10 11  1  0  0  0  0
 10 12  1  0  0  0  0
 10 13  1  0  0  0  0
 13 14  1  0  0  0  0
 13 15  1  0  0  0  0
 13 16  1  0  0  0  0
 16 17  1  0  0  0  0
 16 18  1  0  0  0  0
 16 19  1  0  0  0  0
 19 20  1  0  0  0  0
 19 21  1  0  0  0  0
 19 22  1  0  0  0  0
M  END
> <VConfSearch Rank>
309

> <Conf_Id>
43

> <Delta U+W>
-0.129

> <U+W>
-53.289

> <U>
7.937

> <W>
-61.225

> <W(PB)>
-63.523

> <W(SA)>
2.297

> <Valence>
7.358

> <Coulomb>
-0.022

> <VdW>
0.601

> <VdW6>
-7.363

> <VdW12>
7.964

> <Bond>
0.121

> <Angle>
2.425

> <Pdih>
4.811

> <Idih>
0.000

> <Tether>
0.000

$$$$
VeraChem MOL file


 22 21  0  0  0  0  0  0  0  0999 V2000     
   21.1071   19.5284   25.4850 C   0  0  0  0  0  0  0  0  0  0  0  0
   22.0423   18.7830   25.7010 O   0  5  0  0  0  0  0  0  0  0  0  0
   20.0842   19.5314   26.1411 O   0  0  0  0  0  0  0  0  0  0  0  0
   21.2340   20.5272   24.3380 C   0  0  0  0  0  0  0  0  0  0  0  0
   22.2245   20.9908   24.4150 H   0  0  0  0  0  0  0  0  0  0  0  0
   20.4972   21.3260   24.4862 H   0  0  0  0  0  0  0  0  0  0  0  0
   21.0649   19.8969   22.9312 C   0  0  0  0  0  0  0  0  0  0  0  0
   21.3070   20.6520   22.1710 H   0  0  0  0  0  0  0  0  0  0  0  0
   21.7904   19.0807   22.8085 H   0  0  0  0  0  0  0  0  0  0  0  0
   19.6344   19.3671   22.6854 C   0  0  0  0  0  0  0  0  0  0  0  0
   18.9121   20.1836   22.8221 H   0  0  0  0  0  0  0  0  0  0  0  0
   19.3910   18.5985   23.4320 H   0  0  0  0  0  0  0  0  0  0  0  0
   19.4803   18.7730   21.2688 C   0  0  0  0  0  0  0  0  0  0  0  0
   19.7204   19.5405   20.5203 H   0  0  0  0  0  0  0  0  0  0  0  0
   20.2028   17.9565   21.1330 H   0  0  0  0  0  0  0  0  0  0  0  0
   18.0521   18.2429   21.0229 C   0  0  0  0  0  0  0  0  0  0  0  0
   17.3266   19.0573   21.1563 H   0  0  0  0  0  0  0  0  0  0  0  0
   17.8091   17.4735   21.7688 H   0  0  0  0  0  0  0  0  0  0  0  0
   17.9022   17.6499   19.6076 C   0  0  0  0  0  0  0  0  0  0  0  0
   18.1091   18.4074   18.8403 H   0  0  0  0  0  0  0  0  0  0  0  0
   16.8814   17.2780   19.4501 H   0  0  0  0  0  0  0  0  0  0  0  0
   18.5952   16.8116   19.4575 H   0  0  0  0  0  0  0  0  0  0  0  0
  1  2  1  0  0  0  0
  1  3  2  0  0  0  0
  1  4  1  0  0  0  0
  4  5  1  0  0  0  0
  4  6  1  0  0  0  0
  4  7  1  0  0  0  0
  7  8  1  0  0  0  0
  7  9  1  0  0  0  0
  7 10  1  0  0  0  0
 10 11  1  0  0  0  0
 10 12  1  0  0  0  0
 10 13  1  0  0  0  0
 13 14  1  0  0  0  0
 13 15  1  0  0  0  0
 13 16  1  0  0  0  0
 16 17  1  0  0  0  0
 16 18  1  0  0  0  0
 16 19  1  0  0  0  0
 19 20  1  0  0  0  0
 19 21  1  0  0  0  0
 19 22  1  0  0  0  0
M  END
> <VConfSearch Rank>
310

> <Conf_Id>
44

> <Delta U+W>
-0.155

> <U+W>
-53.314

> <U>
7.937

> <W>
-61.252

> <W(PB)>
-63.556

> <W(SA)>
2.304

> <Valence>
7.358

> <Coulomb>
-0.021

> <VdW>
0.600

> <VdW6>
-7.363

> <VdW12>
7.964

> <Bond>
0.121

> <Angle>
2.425

> <Pdih>
4.811

> <Idih>
0.001

> <Tether>
0.000

$$$$
VeraChem MOL file


 22 21  0  0  0  0  0  0  0  0999 V2000     
   19.5586   22.3132   23.5956 C   0  0  0  0  0  0  0  0  0  0  0  0
   18.9159   22.3512   24.6264 O   0  5  0  0  0  0  0  0  0  0  0  0
   19.3684   23.0613   22.6569 O   0  0  0  0  0  0  0  0  0  0  0  0
   20.6777   21.2816   23.4834 C   0  0  0  0  0  0  0  0  0  0  0  0
   21.2506   21.3178   24.4175 H   0  0  0  0  0  0  0  0  0  0  0  0
   21.3592   21.5893   22.6811 H   0  0  0  0  0  0  0  0  0  0  0  0
   20.1807   19.8331   23.2373 C   0  0  0  0  0  0  0  0  0  0  0  0
   21.0366   19.1523   23.3269 H   0  0  0  0  0  0  0  0  0  0  0  0
   19.4686   19.5539   24.0262 H   0  0  0  0  0  0  0  0  0  0  0  0
   19.5197   19.6601   21.8486 C   0  0  0  0  0  0  0  0  0  0  0  0
   20.2462   19.8991   21.0600 H   0  0  0  0  0  0  0  0  0  0  0  0
   18.7019   20.3863   21.7457 H   0  0  0  0  0  0  0  0  0  0  0  0
   18.9443   18.2435   21.6117 C   0  0  0  0  0  0  0  0  0  0  0  0
   18.2181   18.0049   22.4008 H   0  0  0  0  0  0  0  0  0  0  0  0
   18.3845   18.2497   20.6665 H   0  0  0  0  0  0  0  0  0  0  0  0
   20.0248   17.1405   21.5465 C   0  0  0  0  0  0  0  0  0  0  0  0
   20.5443   17.0617   22.5105 H   0  0  0  0  0  0  0  0  0  0  0  0
   20.7810   17.4064   20.7950 H   0  0  0  0  0  0  0  0  0  0  0  0
   19.4127   15.7699   21.1940 C   0  0  0  0  0  0  0  0  0  0  0  0
   18.6714   15.4664   21.9449 H   0  0  0  0  0  0  0  0  0  0  0  0
   20.1914   14.9971   21.1548 H   0  0  0  0  0  0  0  0  0  0  0  0
   18.9166   15.8007   20.2151 H   0  0  0  0  0  0  0  0  0  0  0  0
  1  2  1  0  0  0  0
  1  3  2  0  0  0  0
  1  4  1  0  0  0  0
  4  5  1  0  0  0  0
  4  6  1  0  0  0  0
  4  7  1  0  0  0  0
  7  8  1  0  0  0  0
  7  9  1  0  0  0  0
  7 10  1  0  0  0  0
 10 11  1  0  0  0  0
 10 12  1  0  0  0  0
 10 13  1  0  0  0  0
 13 14  1  0  0  0  0
 13 15  1  0  0  0  0
 13 16  1  0  0  0  0
 16 17  1  0  0  0  0
 16 18  1  0  0  0  0
 16 19  1  0  0  0  0
 19 20  1  0  0  0  0
 19 21  1  0  0  0  0
 19 22  1  0  0  0  0
M  END
> <VConfSearch Rank>
311

> <Conf_Id>
53

> <Delta U+W>
0.723

> <U+W>
-52.436

> <U>
8.587

> <W>
-61.022

> <W(PB)>
-63.285

> <W(SA)>
2.263

> <Valence>
7.933

> <Coulomb>
-0.124

> <VdW>
0.778

> <VdW6>
-7.981

> <VdW12>
8.759

> <Bond>
0.160

> <Angle>
2.698

> <Pdih>
5.074

> <Idih>
0.001

> <Tether>
0.000

$$$$
VeraChem MOL file


 22 21  0  0  0  0  0  0  0  0999 V2000     
   21.3431   16.1260   21.6407 C   0  0  0  0  0  0  0  0  0  0  0  0
   21.4647   16.0279   20.4357 O   0  5  0  0  0  0  0  0  0  0  0  0
   21.8081   15.3285   22.4308 O   0  0  0  0  0  0  0  0  0  0  0  0
   20.5845   17.3275   22.1929 C   0  0  0  0  0  0  0  0  0  0  0  0
   20.1011   17.0246   23.1293 H   0  0  0  0  0  0  0  0  0  0  0  0
   19.7928   17.5766   21.4774 H   0  0  0  0  0  0  0  0  0  0  0  0
   21.4984   18.5554   22.4338 C   0  0  0  0  0  0  0  0  0  0  0  0
   22.3573   18.2408   23.0427 H   0  0  0  0  0  0  0  0  0  0  0  0
   21.9103   18.8932   21.4728 H   0  0  0  0  0  0  0  0  0  0  0  0
   20.8002   19.7416   23.1452 C   0  0  0  0  0  0  0  0  0  0  0  0
   21.5555   20.5240   23.3016 H   0  0  0  0  0  0  0  0  0  0  0  0
   20.4719   19.4393   24.1491 H   0  0  0  0  0  0  0  0  0  0  0  0
   19.6188   20.3622   22.3574 C   0  0  0  0  0  0  0  0  0  0  0  0
   19.6227   21.4483   22.5225 H   0  0  0  0  0  0  0  0  0  0  0  0
   19.7667   20.2168   21.2785 H   0  0  0  0  0  0  0  0  0  0  0  0
   18.2387   19.8157   22.7905 C   0  0  0  0  0  0  0  0  0  0  0  0
   18.0815   20.0198   23.8586 H   0  0  0  0  0  0  0  0  0  0  0  0
   18.1994   18.7265   22.6703 H   0  0  0  0  0  0  0  0  0  0  0  0
   17.0964   20.4562   21.9769 C   0  0  0  0  0  0  0  0  0  0  0  0
   17.0830   21.5461   22.1086 H   0  0  0  0  0  0  0  0  0  0  0  0
   16.1236   20.0637   22.3005 H   0  0  0  0  0  0  0  0  0  0  0  0
   17.2093   20.2414   20.9061 H   0  0  0  0  0  0  0  0  0  0  0  0
  1  2  1  0  0  0  0
  1  3  2  0  0  0  0
  1  4  1  0  0  0  0
  4  5  1  0  0  0  0
  4  6  1  0  0  0  0
  4  7  1  0  0  0  0
  7  8  1  0  0  0  0
  7  9  1  0  0  0  0
  7 10  1  0  0  0  0
 10 11  1  0  0  0  0
 10 12  1  0  0  0  0
 10 13  1  0  0  0  0
 13 14  1  0  0  0  0
 13 15  1  0  0  0  0
 13 16  1  0  0  0  0
 16 17  1  0  0  0  0
 16 18  1  0  0  0  0
 16 19  1  0  0  0  0
 19 20  1  0  0  0  0
 19 21  1  0  0  0  0
 19 22  1  0  0  0  0
M  END
> <VConfSearch Rank>
312

> <Conf_Id>
5

> <Delta U+W>
2.167

> <U+W>
-50.993

> <U>
10.045

> <W>
-61.037

> <W(PB)>
-63.303

> <W(SA)>
2.266

> <Valence>
10.100

> <Coulomb>
-0.883

> <VdW>
0.828

> <VdW6>
-8.177

> <VdW12>
9.005

> <Bond>
0.182

> <Angle>
2.988

> <Pdih>
6.930

> <Idih>
0.001

> <Tether>
0.000

$$$$
VeraChem MOL file


 22 21  0  0  0  0  0  0  0  0999 V2000     
   17.0841   17.4598   23.5011 C   0  0  0  0  0  0  0  0  0  0  0  0
   17.3881   16.5501   24.2471 O   0  5  0  0  0  0  0  0  0  0  0  0
   15.9389   17.7183   23.1874 O   0  0  0  0  0  0  0  0  0  0  0  0
   18.2022   18.3096   22.9079 C   0  0  0  0  0  0  0  0  0  0  0  0
   19.0008   18.3746   23.6554 H   0  0  0  0  0  0  0  0  0  0  0  0
   17.8134   19.3226   22.7500 H   0  0  0  0  0  0  0  0  0  0  0  0
   18.7536   17.7335   21.5794 C   0  0  0  0  0  0  0  0  0  0  0  0
   19.2103   16.7530   21.7728 H   0  0  0  0  0  0  0  0  0  0  0  0
   17.9109   17.5509   20.8983 H   0  0  0  0  0  0  0  0  0  0  0  0
   19.7759   18.6499   20.8612 C   0  0  0  0  0  0  0  0  0  0  0  0
   19.2980   19.5970   20.5753 H   0  0  0  0  0  0  0  0  0  0  0  0
   20.0537   18.1596   19.9181 H   0  0  0  0  0  0  0  0  0  0  0  0
   21.0734   18.9230   21.6634 C   0  0  0  0  0  0  0  0  0  0  0  0
   21.2814   18.0842   22.3417 H   0  0  0  0  0  0  0  0  0  0  0  0
   21.9159   18.9626   20.9594 H   0  0  0  0  0  0  0  0  0  0  0  0
   21.0402   20.2550   22.4480 C   0  0  0  0  0  0  0  0  0  0  0  0
   20.1937   20.2720   23.1448 H   0  0  0  0  0  0  0  0  0  0  0  0
   20.8889   21.0893   21.7492 H   0  0  0  0  0  0  0  0  0  0  0  0
   22.3473   20.4807   23.2340 C   0  0  0  0  0  0  0  0  0  0  0  0
   22.5092   19.6775   23.9646 H   0  0  0  0  0  0  0  0  0  0  0  0
   22.3112   21.4327   23.7794 H   0  0  0  0  0  0  0  0  0  0  0  0
   23.2123   20.5096   22.5585 H   0  0  0  0  0  0  0  0  0  0  0  0
  1  2  1  0  0  0  0
  1  3  2  0  0  0  0
  1  4  1  0  0  0  0
  4  5  1  0  0  0  0
  4  6  1  0  0  0  0
  4  7  1  0  0  0  0
  7  8  1  0  0  0  0
  7  9  1  0  0  0  0
  7 10  1  0  0  0  0
 10 11  1  0  0  0  0
 10 12  1  0  0  0  0
 10 13  1  0  0  0  0
 13 14  1  0  0  0  0
 13 15  1  0  0  0  0
 13 16  1  0  0  0  0
 16 17  1  0  0  0  0
 16 18  1  0  0  0  0
 16 19  1  0  0  0  0
 19 20  1  0  0  0  0
 19 21  1  0  0  0  0
 19 22  1  0  0  0  0
M  END
> <VConfSearch Rank>
313

> <Conf_Id>
6

> <Delta U+W>
2.118

> <U+W>
-51.042

> <U>
10.045

> <W>
-61.086

> <W(PB)>
-63.356

> <W(SA)>
2.270

> <Valence>
10.100

> <Coulomb>
-0.883

> <VdW>
0.828

> <VdW6>
-8.177

> <VdW12>
9.004

> <Bond>
0.182

> <Angle>
2.988

> <Pdih>
6.930

> <Idih>
0.001

> <Tether>
0.000

$$$$
VeraChem MOL file


 22 21  0  0  0  0  0  0  0  0999 V2000     
   19.2155   16.3516   23.1215 C   0  0  0  0  0  0  0  0  0  0  0  0
   18.0226   16.2261   23.3183 O   0  5  0  0  0  0  0  0  0  0  0  0
   20.0535   16.2487   23.9957 O   0  0  0  0  0  0  0  0  0  0  0  0
   19.6940   16.5804   21.6890 C   0  0  0  0  0  0  0  0  0  0  0  0
   19.4058   15.6878   21.1217 H   0  0  0  0  0  0  0  0  0  0  0  0
   20.7901   16.6170   21.6806 H   0  0  0  0  0  0  0  0  0  0  0  0
   19.1079   17.8371   20.9861 C   0  0  0  0  0  0  0  0  0  0  0  0
   19.2145   17.6995   19.9016 H   0  0  0  0  0  0  0  0  0  0  0  0
   18.0278   17.9038   21.1772 H   0  0  0  0  0  0  0  0  0  0  0  0
   19.7972   19.1723   21.3618 C   0  0  0  0  0  0  0  0  0  0  0  0
   19.4098   19.9560   20.6964 H   0  0  0  0  0  0  0  0  0  0  0  0
   20.8748   19.1014   21.1604 H   0  0  0  0  0  0  0  0  0  0  0  0
   19.5701   19.6084   22.8270 C   0  0  0  0  0  0  0  0  0  0  0  0
   18.4964   19.5800   23.0583 H   0  0  0  0  0  0  0  0  0  0  0  0
   20.0641   18.9030   23.5070 H   0  0  0  0  0  0  0  0  0  0  0  0
   20.1188   21.0263   23.0917 C   0  0  0  0  0  0  0  0  0  0  0  0
   19.6263   21.7460   22.4233 H   0  0  0  0  0  0  0  0  0  0  0  0
   21.1923   21.0568   22.8591 H   0  0  0  0  0  0  0  0  0  0  0  0
   19.8995   21.4557   24.5563 C   0  0  0  0  0  0  0  0  0  0  0  0
   18.8306   21.4641   24.8069 H   0  0  0  0  0  0  0  0  0  0  0  0
   20.2961   22.4649   24.7274 H   0  0  0  0  0  0  0  0  0  0  0  0
   20.4078   20.7697   25.2466 H   0  0  0  0  0  0  0  0  0  0  0  0
  1  2  1  0  0  0  0
  1  3  2  0  0  0  0
  1  4  1  0  0  0  0
  4  5  1  0  0  0  0
  4  6  1  0  0  0  0
  4  7  1  0  0  0  0
  7  8  1  0  0  0  0
  7  9  1  0  0  0  0
  7 10  1  0  0  0  0
 10 11  1  0  0  0  0
 10 12  1  0  0  0  0
 10 13  1  0  0  0  0
 13 14  1  0  0  0  0
 13 15  1  0  0  0  0
 13 16  1  0  0  0  0
 16 17  1  0  0  0  0
 16 18  1  0  0  0  0
 16 19  1  0  0  0  0
 19 20  1  0  0  0  0
 19 21  1  0  0  0  0
 19 22  1  0  0  0  0
M  END
> <VConfSearch Rank>
314

> <Conf_Id>
8

> <Delta U+W>
1.886

> <U+W>
-51.274

> <U>
11.237

> <W>
-62.510

> <W(PB)>
-64.777

> <W(SA)>
2.267

> <Valence>
9.029

> <Coulomb>
1.667

> <VdW>
0.540

> <VdW6>
-8.825

> <VdW12>
9.365

> <Bond>
0.186

> <Angle>
3.195

> <Pdih>
5.642

> <Idih>
0.007

> <Tether>
0.000

$$$$
VeraChem MOL file


 22 21  0  0  0  0  0  0  0  0999 V2000     
   19.2744   22.0032   22.6067 C   0  0  0  0  0  0  0  0  0  0  0  0
   19.8915   22.0230   23.6534 O   0  5  0  0  0  0  0  0  0  0  0  0
   18.2191   22.5821   22.4377 O   0  0  0  0  0  0  0  0  0  0  0  0
   19.8696   21.2351   21.4299 C   0  0  0  0  0  0  0  0  0  0  0  0
   20.9213   21.0179   21.6478 H   0  0  0  0  0  0  0  0  0  0  0  0
   19.8663   21.9099   20.5660 H   0  0  0  0  0  0  0  0  0  0  0  0
   19.1027   19.9339   21.0668 C   0  0  0  0  0  0  0  0  0  0  0  0
   18.0766   20.2008   20.7781 H   0  0  0  0  0  0  0  0  0  0  0  0
   19.5632   19.4798   20.1791 H   0  0  0  0  0  0  0  0  0  0  0  0
   19.0412   18.8831   22.2029 C   0  0  0  0  0  0  0  0  0  0  0  0
   18.4004   18.0584   21.8666 H   0  0  0  0  0  0  0  0  0  0  0  0
   18.5497   19.3178   23.0841 H   0  0  0  0  0  0  0  0  0  0  0  0
   20.4296   18.3274   22.6042 C   0  0  0  0  0  0  0  0  0  0  0  0
   20.9326   17.9095   21.7217 H   0  0  0  0  0  0  0  0  0  0  0  0
   21.0594   19.1514   22.9639 H   0  0  0  0  0  0  0  0  0  0  0  0
   20.3639   17.2570   23.7186 C   0  0  0  0  0  0  0  0  0  0  0  0
   19.8473   17.6677   24.5971 H   0  0  0  0  0  0  0  0  0  0  0  0
   21.3877   17.0240   24.0422 H   0  0  0  0  0  0  0  0  0  0  0  0
   19.6760   15.9479   23.2738 C   0  0  0  0  0  0  0  0  0  0  0  0
   18.6127   16.1066   23.0556 H   0  0  0  0  0  0  0  0  0  0  0  0
   19.7421   15.1917   24.0667 H   0  0  0  0  0  0  0  0  0  0  0  0
   20.1551   15.5378   22.3753 H   0  0  0  0  0  0  0  0  0  0  0  0
  1  2  1  0  0  0  0
  1  3  2  0  0  0  0
  1  4  1  0  0  0  0
  4  5  1  0  0  0  0
  4  6  1  0  0  0  0
  4  7  1  0  0  0  0
  7  8  1  0  0  0  0
  7  9  1  0  0  0  0
  7 10  1  0  0  0  0
 10 11  1  0  0  0  0
 10 12  1  0  0  0  0
 10 13  1  0  0  0  0
 13 14  1  0  0  0  0
 13 15  1  0  0  0  0
 13 16  1  0  0  0  0
 16 17  1  0  0  0  0
 16 18  1  0  0  0  0
 16 19  1  0  0  0  0
 19 20  1  0  0  0  0
 19 21  1  0  0  0  0
 19 22  1  0  0  0  0
M  END
> <VConfSearch Rank>
315

> <Conf_Id>
93

> <Delta U+W>
1.836

> <U+W>
-51.323

> <U>
10.427

> <W>
-61.751

> <W(PB)>
-63.980

> <W(SA)>
2.230

> <Valence>
8.446

> <Coulomb>
1.306

> <VdW>
0.676

> <VdW6>
-8.928

> <VdW12>
9.604

> <Bond>
0.209

> <Angle>
3.066

> <Pdih>
5.170

> <Idih>
0.001

> <Tether>
0.000

$$$$
VeraChem MOL file


 22 21  0  0  0  0  0  0  0  0999 V2000     
   20.1799   20.5446   19.7468 C   0  0  0  0  0  0  0  0  0  0  0  0
   21.2257   20.5532   19.1276 O   0  5  0  0  0  0  0  0  0  0  0  0
   19.6561   21.5453   20.1950 O   0  0  0  0  0  0  0  0  0  0  0  0
   19.4726   19.2068   19.9449 C   0  0  0  0  0  0  0  0  0  0  0  0
   19.4119   18.7224   18.9633 H   0  0  0  0  0  0  0  0  0  0  0  0
   18.4404   19.3980   20.2590 H   0  0  0  0  0  0  0  0  0  0  0  0
   20.1841   18.2533   20.9438 C   0  0  0  0  0  0  0  0  0  0  0  0
   19.6411   17.2993   20.9806 H   0  0  0  0  0  0  0  0  0  0  0  0
   21.1854   18.0219   20.5548 H   0  0  0  0  0  0  0  0  0  0  0  0
   20.3271   18.8141   22.3803 C   0  0  0  0  0  0  0  0  0  0  0  0
   20.9003   19.7511   22.3575 H   0  0  0  0  0  0  0  0  0  0  0  0
   20.9228   18.1012   22.9641 H   0  0  0  0  0  0  0  0  0  0  0  0
   18.9700   19.0530   23.0866 C   0  0  0  0  0  0  0  0  0  0  0  0
   18.3873   19.7856   22.5134 H   0  0  0  0  0  0  0  0  0  0  0  0
   18.3854   18.1231   23.0940 H   0  0  0  0  0  0  0  0  0  0  0  0
   19.1149   19.5854   24.5314 C   0  0  0  0  0  0  0  0  0  0  0  0
   18.1195   19.8628   24.9047 H   0  0  0  0  0  0  0  0  0  0  0  0
   19.7127   20.5073   24.5285 H   0  0  0  0  0  0  0  0  0  0  0  0
   19.7401   18.5617   25.5040 C   0  0  0  0  0  0  0  0  0  0  0  0
   20.7828   18.3434   25.2423 H   0  0  0  0  0  0  0  0  0  0  0  0
   19.1779   17.6188   25.4969 H   0  0  0  0  0  0  0  0  0  0  0  0
   19.7310   18.9525   26.5297 H   0  0  0  0  0  0  0  0  0  0  0  0
  1  2  1  0  0  0  0
  1  3  2  0  0  0  0
  1  4  1  0  0  0  0
  4  5  1  0  0  0  0
  4  6  1  0  0  0  0
  4  7  1  0  0  0  0
  7  8  1  0  0  0  0
  7  9  1  0  0  0  0
  7 10  1  0  0  0  0
 10 11  1  0  0  0  0
 10 12  1  0  0  0  0
 10 13  1  0  0  0  0
 13 14  1  0  0  0  0
 13 15  1  0  0  0  0
 13 16  1  0  0  0  0
 16 17  1  0  0  0  0
 16 18  1  0  0  0  0
 16 19  1  0  0  0  0
 19 20  1  0  0  0  0
 19 21  1  0  0  0  0
 19 22  1  0  0  0  0
M  END
> <VConfSearch Rank>
316

> <Conf_Id>
70

> <Delta U+W>
1.803

> <U+W>
-51.356

> <U>
10.428

> <W>
-61.784

> <W(PB)>
-64.014

> <W(SA)>
2.230

> <Valence>
8.445

> <Coulomb>
1.306

> <VdW>
0.676

> <VdW6>
-8.929

> <VdW12>
9.605

> <Bond>
0.209

> <Angle>
3.066

> <Pdih>
5.170

> <Idih>
0.001

> <Tether>
0.000

$$$$
VeraChem MOL file


 22 21  0  0  0  0  0  0  0  0999 V2000     
   20.6325   21.9695   23.6137 C   0  0  0  0  0  0  0  0  0  0  0  0
   20.7050   22.6820   22.6319 O   0  5  0  0  0  0  0  0  0  0  0  0
   21.5566   21.7866   24.3815 O   0  0  0  0  0  0  0  0  0  0  0  0
   19.3009   21.2845   23.9083 C   0  0  0  0  0  0  0  0  0  0  0  0
   18.5102   22.0320   23.7735 H   0  0  0  0  0  0  0  0  0  0  0  0
   19.2839   20.9918   24.9651 H   0  0  0  0  0  0  0  0  0  0  0  0
   19.0116   20.0563   23.0066 C   0  0  0  0  0  0  0  0  0  0  0  0
   17.9869   19.7090   23.1949 H   0  0  0  0  0  0  0  0  0  0  0  0
   19.0530   20.3697   21.9551 H   0  0  0  0  0  0  0  0  0  0  0  0
   19.9998   18.8922   23.2574 C   0  0  0  0  0  0  0  0  0  0  0  0
   20.0062   18.6544   24.3299 H   0  0  0  0  0  0  0  0  0  0  0  0
   21.0213   19.2088   23.0050 H   0  0  0  0  0  0  0  0  0  0  0  0
   19.6497   17.6067   22.4711 C   0  0  0  0  0  0  0  0  0  0  0  0
   20.3227   16.8033   22.8006 H   0  0  0  0  0  0  0  0  0  0  0  0
   18.6315   17.2837   22.7277 H   0  0  0  0  0  0  0  0  0  0  0  0
   19.7746   17.7689   20.9394 C   0  0  0  0  0  0  0  0  0  0  0  0
   20.7765   18.1427   20.6869 H   0  0  0  0  0  0  0  0  0  0  0  0
   19.0540   18.5141   20.5778 H   0  0  0  0  0  0  0  0  0  0  0  0
   19.5261   16.4347   20.2073 C   0  0  0  0  0  0  0  0  0  0  0  0
   20.2553   15.6745   20.5168 H   0  0  0  0  0  0  0  0  0  0  0  0
   19.6153   16.5670   19.1212 H   0  0  0  0  0  0  0  0  0  0  0  0
   18.5196   16.0515   20.4208 H   0  0  0  0  0  0  0  0  0  0  0  0
  1  2  1  0  0  0  0
  1  3  2  0  0  0  0
  1  4  1  0  0  0  0
  4  5  1  0  0  0  0
  4  6  1  0  0  0  0
  4  7  1  0  0  0  0
  7  8  1  0  0  0  0
  7  9  1  0  0  0  0
  7 10  1  0  0  0  0
 10 11  1  0  0  0  0
 10 12  1  0  0  0  0
 10 13  1  0  0  0  0
 13 14  1  0  0  0  0
 13 15  1  0  0  0  0
 13 16  1  0  0  0  0
 16 17  1  0  0  0  0
 16 18  1  0  0  0  0
 16 19  1  0  0  0  0
 19 20  1  0  0  0  0
 19 21  1  0  0  0  0
 19 22  1  0  0  0  0
M  END
> <VConfSearch Rank>
317

> <Conf_Id>
85

> <Delta U+W>
0.707

> <U+W>
-52.452

> <U>
8.925

> <W>
-61.378

> <W(PB)>
-63.661

> <W(SA)>
2.283

> <Valence>
7.881

> <Coulomb>
0.349

> <VdW>
0.695

> <VdW6>
-8.049

> <VdW12>
8.743

> <Bond>
0.156

> <Angle>
2.660

> <Pdih>
5.064

> <Idih>
0.001

> <Tether>
0.000

$$$$
VeraChem MOL file


 22 21  0  0  0  0  0  0  0  0999 V2000     
   17.6785   19.8575   24.7052 C   0  0  0  0  0  0  0  0  0  0  0  0
   17.3191   18.9427   25.4200 O   0  5  0  0  0  0  0  0  0  0  0  0
   18.0311   20.9414   25.1269 O   0  0  0  0  0  0  0  0  0  0  0  0
   17.6647   19.6433   23.1941 C   0  0  0  0  0  0  0  0  0  0  0  0
   17.1918   20.5239   22.7437 H   0  0  0  0  0  0  0  0  0  0  0  0
   17.0200   18.7857   22.9670 H   0  0  0  0  0  0  0  0  0  0  0  0
   19.0701   19.4363   22.5714 C   0  0  0  0  0  0  0  0  0  0  0  0
   18.9693   19.4500   21.4789 H   0  0  0  0  0  0  0  0  0  0  0  0
   19.7190   20.2795   22.8460 H   0  0  0  0  0  0  0  0  0  0  0  0
   19.7242   18.1048   23.0077 C   0  0  0  0  0  0  0  0  0  0  0  0
   19.1117   17.2644   22.6539 H   0  0  0  0  0  0  0  0  0  0  0  0
   19.7227   18.0446   24.1046 H   0  0  0  0  0  0  0  0  0  0  0  0
   21.1826   17.9218   22.5178 C   0  0  0  0  0  0  0  0  0  0  0  0
   21.8236   18.7063   22.9426 H   0  0  0  0  0  0  0  0  0  0  0  0
   21.5540   16.9756   22.9344 H   0  0  0  0  0  0  0  0  0  0  0  0
   21.3484   17.8680   20.9785 C   0  0  0  0  0  0  0  0  0  0  0  0
   20.4303   17.4887   20.5090 H   0  0  0  0  0  0  0  0  0  0  0  0
   22.1373   17.1428   20.7355 H   0  0  0  0  0  0  0  0  0  0  0  0
   21.7442   19.2277   20.3608 C   0  0  0  0  0  0  0  0  0  0  0  0
   20.9896   19.9989   20.5530 H   0  0  0  0  0  0  0  0  0  0  0  0
   21.8601   19.1360   19.2731 H   0  0  0  0  0  0  0  0  0  0  0  0
   22.6995   19.5794   20.7715 H   0  0  0  0  0  0  0  0  0  0  0  0
  1  2  1  0  0  0  0
  1  3  2  0  0  0  0
  1  4  1  0  0  0  0
  4  5  1  0  0  0  0
  4  6  1  0  0  0  0
  4  7  1  0  0  0  0
  7  8  1  0  0  0  0
  7  9  1  0  0  0  0
  7 10  1  0  0  0  0
 10 11  1  0  0  0  0
 10 12  1  0  0  0  0
 10 13  1  0  0  0  0
 13 14  1  0  0  0  0
 13 15  1  0  0  0  0
 13 16  1  0  0  0  0
 16 17  1  0  0  0  0
 16 18  1  0  0  0  0
 16 19  1  0  0  0  0
 19 20  1  0  0  0  0
 19 21  1  0  0  0  0
 19 22  1  0  0  0  0
M  END
> <VConfSearch Rank>
318

> <Conf_Id>
82

> <Delta U+W>
3.438

> <U+W>
-49.721

> <U>
11.773

> <W>
-61.495

> <W(PB)>
-63.749

> <W(SA)>
2.254

> <Valence>
10.419

> <Coulomb>
0.565

> <VdW>
0.789

> <VdW6>
-8.847

> <VdW12>
9.636

> <Bond>
0.200

> <Angle>
3.187

> <Pdih>
7.032

> <Idih>
0.001

> <Tether>
0.000

$$$$
VeraChem MOL file


 22 21  0  0  0  0  0  0  0  0999 V2000     
   21.7109   18.3951   25.1539 C   0  0  0  0  0  0  0  0  0  0  0  0
   22.6596   17.6897   24.8723 O   0  5  0  0  0  0  0  0  0  0  0  0
   21.7966   19.3940   25.8408 O   0  0  0  0  0  0  0  0  0  0  0  0
   20.3340   17.9898   24.6349 C   0  0  0  0  0  0  0  0  0  0  0  0
   19.5693   18.4976   25.2351 H   0  0  0  0  0  0  0  0  0  0  0  0
   20.2193   16.9150   24.8182 H   0  0  0  0  0  0  0  0  0  0  0  0
   20.1141   18.2833   23.1279 C   0  0  0  0  0  0  0  0  0  0  0  0
   20.9136   17.8080   22.5429 H   0  0  0  0  0  0  0  0  0  0  0  0
   19.1693   17.8182   22.8197 H   0  0  0  0  0  0  0  0  0  0  0  0
   20.0637   19.7973   22.8176 C   0  0  0  0  0  0  0  0  0  0  0  0
   20.9619   20.2796   23.2268 H   0  0  0  0  0  0  0  0  0  0  0  0
   19.2089   20.2484   23.3397 H   0  0  0  0  0  0  0  0  0  0  0  0
   19.9818   20.1350   21.3077 C   0  0  0  0  0  0  0  0  0  0  0  0
   20.0094   21.2291   21.2127 H   0  0  0  0  0  0  0  0  0  0  0  0
   20.8792   19.7684   20.7908 H   0  0  0  0  0  0  0  0  0  0  0  0
   18.7051   19.6220   20.5960 C   0  0  0  0  0  0  0  0  0  0  0  0
   18.3950   20.3675   19.8508 H   0  0  0  0  0  0  0  0  0  0  0  0
   17.8753   19.5426   21.3118 H   0  0  0  0  0  0  0  0  0  0  0  0
   18.9139   18.2764   19.8660 C   0  0  0  0  0  0  0  0  0  0  0  0
   19.6922   18.3666   19.0971 H   0  0  0  0  0  0  0  0  0  0  0  0
   17.9870   17.9611   19.3697 H   0  0  0  0  0  0  0  0  0  0  0  0
   19.2118   17.4791   20.5561 H   0  0  0  0  0  0  0  0  0  0  0  0
  1  2  1  0  0  0  0
  1  3  2  0  0  0  0
  1  4  1  0  0  0  0
  4  5  1  0  0  0  0
  4  6  1  0  0  0  0
  4  7  1  0  0  0  0
  7  8  1  0  0  0  0
  7  9  1  0  0  0  0
  7 10  1  0  0  0  0
 10 11  1  0  0  0  0
 10 12  1  0  0  0  0
 10 13  1  0  0  0  0
 13 14  1  0  0  0  0
 13 15  1  0  0  0  0
 13 16  1  0  0  0  0
 16 17  1  0  0  0  0
 16 18  1  0  0  0  0
 16 19  1  0  0  0  0
 19 20  1  0  0  0  0
 19 21  1  0  0  0  0
 19 22  1  0  0  0  0
M  END
> <VConfSearch Rank>
319

> <Conf_Id>
94

> <Delta U+W>
3.471

> <U+W>
-49.688

> <U>
11.773

> <W>
-61.461

> <W(PB)>
-63.710

> <W(SA)>
2.248

> <Valence>
10.419

> <Coulomb>
0.566

> <VdW>
0.789

> <VdW6>
-8.847

> <VdW12>
9.636

> <Bond>
0.200

> <Angle>
3.187

> <Pdih>
7.032

> <Idih>
0.001

> <Tether>
0.000

$$$$
VeraChem MOL file


 22 21  0  0  0  0  0  0  0  0999 V2000     
   23.0958   19.3691   22.8303 C   0  0  0  0  0  0  0  0  0  0  0  0
   23.9948   18.5516   22.8234 O   0  5  0  0  0  0  0  0  0  0  0  0
   23.1221   20.3922   23.4854 O   0  0  0  0  0  0  0  0  0  0  0  0
   21.8589   19.0859   21.9854 C   0  0  0  0  0  0  0  0  0  0  0  0
   22.1742   18.5293   21.0949 H   0  0  0  0  0  0  0  0  0  0  0  0
   21.4604   20.0481   21.6441 H   0  0  0  0  0  0  0  0  0  0  0  0
   20.7742   18.2907   22.7570 C   0  0  0  0  0  0  0  0  0  0  0  0
   21.2264   17.3721   23.1555 H   0  0  0  0  0  0  0  0  0  0  0  0
   20.4447   18.8702   23.6297 H   0  0  0  0  0  0  0  0  0  0  0  0
   19.5544   17.9023   21.8843 C   0  0  0  0  0  0  0  0  0  0  0  0
   18.8629   17.3003   22.4883 H   0  0  0  0  0  0  0  0  0  0  0  0
   19.8938   17.2418   21.0749 H   0  0  0  0  0  0  0  0  0  0  0  0
   18.7831   19.0946   21.2592 C   0  0  0  0  0  0  0  0  0  0  0  0
   19.4271   19.6014   20.5287 H   0  0  0  0  0  0  0  0  0  0  0  0
   17.9356   18.6994   20.6830 H   0  0  0  0  0  0  0  0  0  0  0  0
   18.2533   20.1399   22.2714 C   0  0  0  0  0  0  0  0  0  0  0  0
   17.7521   20.9437   21.7148 H   0  0  0  0  0  0  0  0  0  0  0  0
   19.0915   20.6133   22.7998 H   0  0  0  0  0  0  0  0  0  0  0  0
   17.2590   19.5491   23.2942 C   0  0  0  0  0  0  0  0  0  0  0  0
   16.4200   19.0558   22.7865 H   0  0  0  0  0  0  0  0  0  0  0  0
   16.8494   20.3415   23.9339 H   0  0  0  0  0  0  0  0  0  0  0  0
   17.7477   18.8141   23.9461 H   0  0  0  0  0  0  0  0  0  0  0  0
  1  2  1  0  0  0  0
  1  3  2  0  0  0  0
  1  4  1  0  0  0  0
  4  5  1  0  0  0  0
  4  6  1  0  0  0  0
  4  7  1  0  0  0  0
  7  8  1  0  0  0  0
  7  9  1  0  0  0  0
  7 10  1  0  0  0  0
 10 11  1  0  0  0  0
 10 12  1  0  0  0  0
 10 13  1  0  0  0  0
 13 14  1  0  0  0  0
 13 15  1  0  0  0  0
 13 16  1  0  0  0  0
 16 17  1  0  0  0  0
 16 18  1  0  0  0  0
 16 19  1  0  0  0  0
 19 20  1  0  0  0  0
 19 21  1  0  0  0  0
 19 22  1  0  0  0  0
M  END
> <VConfSearch Rank>
320

> <Conf_Id>
56

> <Delta U+W>
0.853

> <U+W>
-52.307

> <U>
8.874

> <W>
-61.181

> <W(PB)>
-63.413

> <W(SA)>
2.232

> <Valence>
8.479

> <Coulomb>
-0.357

> <VdW>
0.753

> <VdW6>
-9.081

> <VdW12>
9.833

> <Bond>
0.221

> <Angle>
3.208

> <Pdih>
5.050

> <Idih>
0.000

> <Tether>
0.000

$$$$
VeraChem MOL file


 22 21  0  0  0  0  0  0  0  0999 V2000     
   20.2096   15.1984   23.6466 C   0  0  0  0  0  0  0  0  0  0  0  0
   19.2418   15.3178   24.3728 O   0  5  0  0  0  0  0  0  0  0  0  0
   20.8774   14.1849   23.5924 O   0  0  0  0  0  0  0  0  0  0  0  0
   20.6317   16.3613   22.7471 C   0  0  0  0  0  0  0  0  0  0  0  0
   20.6311   15.9929   21.7145 H   0  0  0  0  0  0  0  0  0  0  0  0
   21.6695   16.6093   22.9987 H   0  0  0  0  0  0  0  0  0  0  0  0
   19.7487   17.6333   22.8505 C   0  0  0  0  0  0  0  0  0  0  0  0
   18.7092   17.3765   22.6033 H   0  0  0  0  0  0  0  0  0  0  0  0
   19.7488   17.9936   23.8886 H   0  0  0  0  0  0  0  0  0  0  0  0
   20.2443   18.7544   21.9114 C   0  0  0  0  0  0  0  0  0  0  0  0
   20.2433   18.3918   20.8742 H   0  0  0  0  0  0  0  0  0  0  0  0
   21.2836   19.0093   22.1604 H   0  0  0  0  0  0  0  0  0  0  0  0
   19.3646   20.0187   22.0160 C   0  0  0  0  0  0  0  0  0  0  0  0
   18.3252   19.7643   21.7671 H   0  0  0  0  0  0  0  0  0  0  0  0
   19.3654   20.3817   23.0530 H   0  0  0  0  0  0  0  0  0  0  0  0
   19.8593   21.1394   21.0777 C   0  0  0  0  0  0  0  0  0  0  0  0
   19.8580   20.7807   20.0391 H   0  0  0  0  0  0  0  0  0  0  0  0
   20.8983   21.3980   21.3249 H   0  0  0  0  0  0  0  0  0  0  0  0
   18.9783   22.4002   21.1852 C   0  0  0  0  0  0  0  0  0  0  0  0
   17.9385   22.1772   20.9125 H   0  0  0  0  0  0  0  0  0  0  0  0
   19.3441   23.1863   20.5118 H   0  0  0  0  0  0  0  0  0  0  0  0
   18.9866   22.7992   22.2080 H   0  0  0  0  0  0  0  0  0  0  0  0
  1  2  1  0  0  0  0
  1  3  2  0  0  0  0
  1  4  1  0  0  0  0
  4  5  1  0  0  0  0
  4  6  1  0  0  0  0
  4  7  1  0  0  0  0
  7  8  1  0  0  0  0
  7  9  1  0  0  0  0
  7 10  1  0  0  0  0
 10 11  1  0  0  0  0
 10 12  1  0  0  0  0
 10 13  1  0  0  0  0
 13 14  1  0  0  0  0
 13 15  1  0  0  0  0
 13 16  1  0  0  0  0
 16 17  1  0  0  0  0
 16 18  1  0  0  0  0
 16 19  1  0  0  0  0
 19 20  1  0  0  0  0
 19 21  1  0  0  0  0
 19 22  1  0  0  0  0
M  END
> <VConfSearch Rank>
321

> <Conf_Id>
0

> <Delta U+W>
0.000

> <U+W>
-53.159

> <U>
6.763

> <W>
-59.922

> <W(PB)>
-62.256

> <W(SA)>
2.334

> <Valence>
7.600

> <Coulomb>
-2.139

> <VdW>
1.302

> <VdW6>
-6.786

> <VdW12>
8.088

> <Bond>
0.134

> <Angle>
2.720

> <Pdih>
4.746

> <Idih>
0.000

> <Tether>
0.000

$$$$
VeraChem MOL file


 22 21  0  0  0  0  0  0  0  0999 V2000     
   16.0175   17.6046   22.1700 C   0  0  0  0  0  0  0  0  0  0  0  0
   15.3097   18.0891   23.0307 O   0  5  0  0  0  0  0  0  0  0  0  0
   15.8995   16.4654   21.7641 O   0  0  0  0  0  0  0  0  0  0  0  0
   17.1295   18.4665   21.5828 C   0  0  0  0  0  0  0  0  0  0  0  0
   16.7878   19.5086   21.5808 H   0  0  0  0  0  0  0  0  0  0  0  0
   17.2736   18.1706   20.5367 H   0  0  0  0  0  0  0  0  0  0  0  0
   18.4620   18.3425   22.3619 C   0  0  0  0  0  0  0  0  0  0  0  0
   18.2978   18.6297   23.4098 H   0  0  0  0  0  0  0  0  0  0  0  0
   18.7836   17.2917   22.3658 H   0  0  0  0  0  0  0  0  0  0  0  0
   19.5710   19.2241   21.7481 C   0  0  0  0  0  0  0  0  0  0  0  0
   19.2459   20.2736   21.7446 H   0  0  0  0  0  0  0  0  0  0  0  0
   19.7318   18.9352   20.7003 H   0  0  0  0  0  0  0  0  0  0  0  0
   20.8981   19.0983   22.5268 C   0  0  0  0  0  0  0  0  0  0  0  0
   20.7377   19.3870   23.5747 H   0  0  0  0  0  0  0  0  0  0  0  0
   21.2236   18.0489   22.5306 H   0  0  0  0  0  0  0  0  0  0  0  0
   22.0070   19.9792   21.9140 C   0  0  0  0  0  0  0  0  0  0  0  0
   21.6858   21.0300   21.9103 H   0  0  0  0  0  0  0  0  0  0  0  0
   22.1717   19.6919   20.8662 H   0  0  0  0  0  0  0  0  0  0  0  0
   23.3305   19.8508   22.6944 C   0  0  0  0  0  0  0  0  0  0  0  0
   23.6917   18.8140   22.6873 H   0  0  0  0  0  0  0  0  0  0  0  0
   23.2021   20.1620   23.7394 H   0  0  0  0  0  0  0  0  0  0  0  0
   24.1073   20.4833   22.2454 H   0  0  0  0  0  0  0  0  0  0  0  0
  1  2  1  0  0  0  0
  1  3  2  0  0  0  0
  1  4  1  0  0  0  0
  4  5  1  0  0  0  0
  4  6  1  0  0  0  0
  4  7  1  0  0  0  0
  7  8  1  0  0  0  0
  7  9  1  0  0  0  0
  7 10  1  0  0  0  0
 10 11  1  0  0  0  0
 10 12  1  0  0  0  0
 10 13  1  0  0  0  0
 13 14  1  0  0  0  0
 13 15  1  0  0  0  0
 13 16  1  0  0  0  0
 16 17  1  0  0  0  0
 16 18  1  0  0  0  0
 16 19  1  0  0  0  0
 19 20  1  0  0  0  0
 19 21  1  0  0  0  0
 19 22  1  0  0  0  0
M  END
> <VConfSearch Rank>
322

> <Conf_Id>
10

> <Delta U+W>
-1.291

> <U+W>
-54.451

> <U>
5.779

> <W>
-60.230

> <W(PB)>
-62.557

> <W(SA)>
2.328

> <Valence>
7.101

> <Coulomb>
-2.079

> <VdW>
0.757

> <VdW6>
-6.496

> <VdW12>
7.253

> <Bond>
0.100

> <Angle>
2.262

> <Pdih>
4.738

> <Idih>
0.001

> <Tether>
0.000

$$$$
VeraChem MOL file


 22 21  0  0  0  0  0  0  0  0999 V2000     
   22.6220   20.3442   24.5909 C   0  0  0  0  0  0  0  0  0  0  0  0
   23.7444   20.2062   24.1462 O   0  5  0  0  0  0  0  0  0  0  0  0
   22.3097   21.2239   25.3686 O   0  0  0  0  0  0  0  0  0  0  0  0
   21.5410   19.3724   24.1312 C   0  0  0  0  0  0  0  0  0  0  0  0
   20.8309   19.2376   24.9559 H   0  0  0  0  0  0  0  0  0  0  0  0
   22.0130   18.3997   23.9475 H   0  0  0  0  0  0  0  0  0  0  0  0
   20.7989   19.8549   22.8605 C   0  0  0  0  0  0  0  0  0  0  0  0
   20.3436   20.8355   23.0569 H   0  0  0  0  0  0  0  0  0  0  0  0
   21.5250   19.9971   22.0480 H   0  0  0  0  0  0  0  0  0  0  0  0
   19.7103   18.8542   22.4157 C   0  0  0  0  0  0  0  0  0  0  0  0
   18.9848   18.7156   23.2289 H   0  0  0  0  0  0  0  0  0  0  0  0
   20.1745   17.8770   22.2292 H   0  0  0  0  0  0  0  0  0  0  0  0
   18.9750   19.3385   21.1449 C   0  0  0  0  0  0  0  0  0  0  0  0
   18.5771   20.3467   21.3245 H   0  0  0  0  0  0  0  0  0  0  0  0
   19.6897   19.4294   20.3155 H   0  0  0  0  0  0  0  0  0  0  0  0
   17.8066   18.4179   20.7220 C   0  0  0  0  0  0  0  0  0  0  0  0
   17.2683   18.8916   19.8896 H   0  0  0  0  0  0  0  0  0  0  0  0
   17.0863   18.3297   21.5471 H   0  0  0  0  0  0  0  0  0  0  0  0
   18.2656   17.0113   20.2805 C   0  0  0  0  0  0  0  0  0  0  0  0
   17.4132   16.4291   19.9072 H   0  0  0  0  0  0  0  0  0  0  0  0
   18.7081   16.4537   21.1154 H   0  0  0  0  0  0  0  0  0  0  0  0
   19.0095   17.0753   19.4758 H   0  0  0  0  0  0  0  0  0  0  0  0
  1  2  1  0  0  0  0
  1  3  2  0  0  0  0
  1  4  1  0  0  0  0
  4  5  1  0  0  0  0
  4  6  1  0  0  0  0
  4  7  1  0  0  0  0
  7  8  1  0  0  0  0
  7  9  1  0  0  0  0
  7 10  1  0  0  0  0
 10 11  1  0  0  0  0
 10 12  1  0  0  0  0
 10 13  1  0  0  0  0
 13 14  1  0  0  0  0
 13 15  1  0  0  0  0
 13 16  1  0  0  0  0
 16 17  1  0  0  0  0
 16 18  1  0  0  0  0
 16 19  1  0  0  0  0
 19 20  1  0  0  0  0
 19 21  1  0  0  0  0
 19 22  1  0  0  0  0
M  END
> <VConfSearch Rank>
323

> <Conf_Id>
37

> <Delta U+W>
-0.345

> <U+W>
-53.504

> <U>
6.751

> <W>
-60.255

> <W(PB)>
-62.592

> <W(SA)>
2.336

> <Valence>
7.602

> <Coulomb>
-1.744

> <VdW>
0.894

> <VdW6>
-7.110

> <VdW12>
8.004

> <Bond>
0.131

> <Angle>
2.489

> <Pdih>
4.982

> <Idih>
0.001

> <Tether>
0.000

$$$$
VeraChem MOL file


 22 21  0  0  0  0  0  0  0  0999 V2000     
   20.6107   17.8284   25.8304 C   0  0  0  0  0  0  0  0  0  0  0  0
   19.9070   16.9070   26.1941 O   0  5  0  0  0  0  0  0  0  0  0  0
   21.1191   18.6279   26.5912 O   0  0  0  0  0  0  0  0  0  0  0  0
   20.8514   18.0040   24.3353 C   0  0  0  0  0  0  0  0  0  0  0  0
   20.8540   17.0102   23.8716 H   0  0  0  0  0  0  0  0  0  0  0  0
   21.8535   18.4280   24.1989 H   0  0  0  0  0  0  0  0  0  0  0  0
   19.7921   18.9074   23.6572 C   0  0  0  0  0  0  0  0  0  0  0  0
   18.7936   18.4759   23.8132 H   0  0  0  0  0  0  0  0  0  0  0  0
   19.7930   19.8936   24.1418 H   0  0  0  0  0  0  0  0  0  0  0  0
   20.0580   19.0694   22.1447 C   0  0  0  0  0  0  0  0  0  0  0  0
   20.0622   18.0786   21.6721 H   0  0  0  0  0  0  0  0  0  0  0  0
   21.0558   19.5029   21.9919 H   0  0  0  0  0  0  0  0  0  0  0  0
   18.9957   19.9688   21.4718 C   0  0  0  0  0  0  0  0  0  0  0  0
   18.0023   19.5121   21.5789 H   0  0  0  0  0  0  0  0  0  0  0  0
   18.9546   20.9306   22.0011 H   0  0  0  0  0  0  0  0  0  0  0  0
   19.2802   20.2431   19.9768 C   0  0  0  0  0  0  0  0  0  0  0  0
   20.2706   20.7060   19.8663 H   0  0  0  0  0  0  0  0  0  0  0  0
   18.5514   20.9783   19.6085 H   0  0  0  0  0  0  0  0  0  0  0  0
   19.1973   18.9774   19.0964 C   0  0  0  0  0  0  0  0  0  0  0  0
   18.2255   18.4803   19.2135 H   0  0  0  0  0  0  0  0  0  0  0  0
   19.9853   18.2584   19.3529 H   0  0  0  0  0  0  0  0  0  0  0  0
   19.3179   19.2382   18.0370 H   0  0  0  0  0  0  0  0  0  0  0  0
  1  2  1  0  0  0  0
  1  3  2  0  0  0  0
  1  4  1  0  0  0  0
  4  5  1  0  0  0  0
  4  6  1  0  0  0  0
  4  7  1  0  0  0  0
  7  8  1  0  0  0  0
  7  9  1  0  0  0  0
  7 10  1  0  0  0  0
 10 11  1  0  0  0  0
 10 12  1  0  0  0  0
 10 13  1  0  0  0  0
 13 14  1  0  0  0  0
 13 15  1  0  0  0  0
 13 16  1  0  0  0  0
 16 17  1  0  0  0  0
 16 18  1  0  0  0  0
 16 19  1  0  0  0  0
 19 20  1  0  0  0  0
 19 21  1  0  0  0  0
 19 22  1  0  0  0  0
M  END
> <VConfSearch Rank>
324

> <Conf_Id>
38

> <Delta U+W>
-0.439

> <U+W>
-53.598

> <U>
6.751

> <W>
-60.350

> <W(PB)>
-62.659

> <W(SA)>
2.309

> <Valence>
7.602

> <Coulomb>
-1.744

> <VdW>
0.893

> <VdW6>
-7.110

> <VdW12>
8.004

> <Bond>
0.131

> <Angle>
2.489

> <Pdih>
4.981

> <Idih>
0.001

> <Tether>
0.000

$$$$
VeraChem MOL file


 22 21  0  0  0  0  0  0  0  0999 V2000     
   17.2842   21.4855   21.0368 C   0  0  0  0  0  0  0  0  0  0  0  0
   17.3175   22.0217   19.9469 O   0  5  0  0  0  0  0  0  0  0  0  0
   16.6604   21.9235   21.9832 O   0  0  0  0  0  0  0  0  0  0  0  0
   18.0874   20.2048   21.2340 C   0  0  0  0  0  0  0  0  0  0  0  0
   18.1060   19.6648   20.2798 H   0  0  0  0  0  0  0  0  0  0  0  0
   17.5450   19.5794   21.9517 H   0  0  0  0  0  0  0  0  0  0  0  0
   19.5340   20.4740   21.7246 C   0  0  0  0  0  0  0  0  0  0  0  0
   20.0132   21.1808   21.0331 H   0  0  0  0  0  0  0  0  0  0  0  0
   19.5035   20.9714   22.7039 H   0  0  0  0  0  0  0  0  0  0  0  0
   20.4074   19.1996   21.8121 C   0  0  0  0  0  0  0  0  0  0  0  0
   21.4382   19.5088   22.0266 H   0  0  0  0  0  0  0  0  0  0  0  0
   20.4288   18.7003   20.8338 H   0  0  0  0  0  0  0  0  0  0  0  0
   19.9334   18.2022   22.8977 C   0  0  0  0  0  0  0  0  0  0  0  0
   19.9103   18.7021   23.8756 H   0  0  0  0  0  0  0  0  0  0  0  0
   18.9037   17.8898   22.6828 H   0  0  0  0  0  0  0  0  0  0  0  0
   20.8092   16.9306   22.9878 C   0  0  0  0  0  0  0  0  0  0  0  0
   20.8443   16.4338   22.0084 H   0  0  0  0  0  0  0  0  0  0  0  0
   20.3300   16.2222   23.6775 H   0  0  0  0  0  0  0  0  0  0  0  0
   22.2455   17.2077   23.4826 C   0  0  0  0  0  0  0  0  0  0  0  0
   22.8085   17.8147   22.7628 H   0  0  0  0  0  0  0  0  0  0  0  0
   22.7919   16.2656   23.6202 H   0  0  0  0  0  0  0  0  0  0  0  0
   22.2346   17.7354   24.4451 H   0  0  0  0  0  0  0  0  0  0  0  0
  1  2  1  0  0  0  0
  1  3  2  0  0  0  0
  1  4  1  0  0  0  0
  4  5  1  0  0  0  0
  4  6  1  0  0  0  0
  4  7  1  0  0  0  0
  7  8  1  0  0  0  0
  7  9  1  0  0  0  0
  7 10  1  0  0  0  0
 10 11  1  0  0  0  0
 10 12  1  0  0  0  0
 10 13  1  0  0  0  0
 13 14  1  0  0  0  0
 13 15  1  0  0  0  0
 13 16  1  0  0  0  0
 16 17  1  0  0  0  0
 16 18  1  0  0  0  0
 16 19  1  0  0  0  0
 19 20  1  0  0  0  0
 19 21  1  0  0  0  0
 19 22  1  0  0  0  0
M  END
> <VConfSearch Rank>
325

> <Conf_Id>
60

> <Delta U+W>
0.386

> <U+W>
-52.773

> <U>
7.689

> <W>
-60.463

> <W(PB)>
-62.772

> <W(SA)>
2.309

> <Valence>
8.197

> <Coulomb>
-1.561

> <VdW>
1.053

> <VdW6>
-7.737

> <VdW12>
8.790

> <Bond>
0.181

> <Angle>
2.780

> <Pdih>
5.235

> <Idih>
0.001

> <Tether>
0.000

$$$$
VeraChem MOL file


 22 21  0  0  0  0  0  0  0  0999 V2000     
   18.1792   21.9724   23.7147 C   0  0  0  0  0  0  0  0  0  0  0  0
   18.0483   21.8307   24.9144 O   0  5  0  0  0  0  0  0  0  0  0  0
   17.5531   22.7829   23.0608 O   0  0  0  0  0  0  0  0  0  0  0  0
   19.1669   21.0681   22.9860 C   0  0  0  0  0  0  0  0  0  0  0  0
   19.9958   20.8605   23.6718 H   0  0  0  0  0  0  0  0  0  0  0  0
   19.5782   21.6279   22.1375 H   0  0  0  0  0  0  0  0  0  0  0  0
   18.5195   19.7479   22.4926 C   0  0  0  0  0  0  0  0  0  0  0  0
   18.1548   19.1726   23.3547 H   0  0  0  0  0  0  0  0  0  0  0  0
   17.6353   19.9949   21.8887 H   0  0  0  0  0  0  0  0  0  0  0  0
   19.4691   18.8706   21.6420 C   0  0  0  0  0  0  0  0  0  0  0  0
   19.8382   19.4512   20.7857 H   0  0  0  0  0  0  0  0  0  0  0  0
   18.8832   18.0409   21.2264 H   0  0  0  0  0  0  0  0  0  0  0  0
   20.6662   18.3034   22.4440 C   0  0  0  0  0  0  0  0  0  0  0  0
   21.2547   19.1320   22.8576 H   0  0  0  0  0  0  0  0  0  0  0  0
   20.2969   17.7243   23.3014 H   0  0  0  0  0  0  0  0  0  0  0  0
   21.6124   17.4229   21.5946 C   0  0  0  0  0  0  0  0  0  0  0  0
   22.4981   17.1770   22.1965 H   0  0  0  0  0  0  0  0  0  0  0  0
   21.9750   17.9950   20.7294 H   0  0  0  0  0  0  0  0  0  0  0  0
   20.9611   16.1081   21.1133 C   0  0  0  0  0  0  0  0  0  0  0  0
   20.5602   15.5353   21.9597 H   0  0  0  0  0  0  0  0  0  0  0  0
   21.7004   15.4795   20.6002 H   0  0  0  0  0  0  0  0  0  0  0  0
   20.1429   16.2996   20.4080 H   0  0  0  0  0  0  0  0  0  0  0  0
  1  2  1  0  0  0  0
  1  3  2  0  0  0  0
  1  4  1  0  0  0  0
  4  5  1  0  0  0  0
  4  6  1  0  0  0  0
  4  7  1  0  0  0  0
  7  8  1  0  0  0  0
  7  9  1  0  0  0  0
  7 10  1  0  0  0  0
 10 11  1  0  0  0  0
 10 12  1  0  0  0  0
 10 13  1  0  0  0  0
 13 14  1  0  0  0  0
 13 15  1  0  0  0  0
 13 16  1  0  0  0  0
 16 17  1  0  0  0  0
 16 18  1  0  0  0  0
 16 19  1  0  0  0  0
 19 20  1  0  0  0  0
 19 21  1  0  0  0  0
 19 22  1  0  0  0  0
M  END
> <VConfSearch Rank>
326

> <Conf_Id>
28

> <Delta U+W>
0.351

> <U+W>
-52.808

> <U>
7.689

> <W>
-60.498

> <W(PB)>
-62.768

> <W(SA)>
2.270

> <Valence>
8.197

> <Coulomb>
-1.561

> <VdW>
1.053

> <VdW6>
-7.737

> <VdW12>
8.791

> <Bond>
0.181

> <Angle>
2.780

> <Pdih>
5.235

> <Idih>
0.001

> <Tether>
0.000

$$$$
VeraChem MOL file


 22 21  0  0  0  0  0  0  0  0999 V2000     
   22.7170   20.9461   23.6331 C   0  0  0  0  0  0  0  0  0  0  0  0
   22.8021   21.0238   24.8427 O   0  5  0  0  0  0  0  0  0  0  0  0
   23.6737   20.7946   22.8994 O   0  0  0  0  0  0  0  0  0  0  0  0
   21.3311   21.0229   23.0025 C   0  0  0  0  0  0  0  0  0  0  0  0
   21.4304   21.4951   22.0177 H   0  0  0  0  0  0  0  0  0  0  0  0
   20.7126   21.6859   23.6193 H   0  0  0  0  0  0  0  0  0  0  0  0
   20.6555   19.6362   22.8640 C   0  0  0  0  0  0  0  0  0  0  0  0
   21.3021   18.9856   22.2605 H   0  0  0  0  0  0  0  0  0  0  0  0
   20.5715   19.1730   23.8568 H   0  0  0  0  0  0  0  0  0  0  0  0
   19.2548   19.7430   22.2178 C   0  0  0  0  0  0  0  0  0  0  0  0
   19.3445   20.1575   21.2043 H   0  0  0  0  0  0  0  0  0  0  0  0
   18.6498   20.4571   22.7932 H   0  0  0  0  0  0  0  0  0  0  0  0
   18.4980   18.3948   22.1606 C   0  0  0  0  0  0  0  0  0  0  0  0
   18.4045   17.9819   23.1744 H   0  0  0  0  0  0  0  0  0  0  0  0
   17.4753   18.5846   21.8072 H   0  0  0  0  0  0  0  0  0  0  0  0
   19.1636   17.3530   21.2332 C   0  0  0  0  0  0  0  0  0  0  0  0
   20.1595   17.0897   21.6130 H   0  0  0  0  0  0  0  0  0  0  0  0
   19.3053   17.7844   20.2327 H   0  0  0  0  0  0  0  0  0  0  0  0
   18.3144   16.0707   21.1223 C   0  0  0  0  0  0  0  0  0  0  0  0
   17.3217   16.2909   20.7084 H   0  0  0  0  0  0  0  0  0  0  0  0
   18.1797   15.6030   22.1064 H   0  0  0  0  0  0  0  0  0  0  0  0
   18.8015   15.3401   20.4636 H   0  0  0  0  0  0  0  0  0  0  0  0
  1  2  1  0  0  0  0
  1  3  2  0  0  0  0
  1  4  1  0  0  0  0
  4  5  1  0  0  0  0
  4  6  1  0  0  0  0
  4  7  1  0  0  0  0
  7  8  1  0  0  0  0
  7  9  1  0  0  0  0
  7 10  1  0  0  0  0
 10 11  1  0  0  0  0
 10 12  1  0  0  0  0
 10 13  1  0  0  0  0
 13 14  1  0  0  0  0
 13 15  1  0  0  0  0
 13 16  1  0  0  0  0
 16 17  1  0  0  0  0
 16 18  1  0  0  0  0
 16 19  1  0  0  0  0
 19 20  1  0  0  0  0
 19 21  1  0  0  0  0
 19 22  1  0  0  0  0
M  END
> <VConfSearch Rank>
327

> <Conf_Id>
50

> <Delta U+W>
-0.486

> <U+W>
-53.646

> <U>
7.026

> <W>
-60.672

> <W(PB)>
-62.964

> <W(SA)>
2.292

> <Valence>
7.637

> <Coulomb>
-1.488

> <VdW>
0.877

> <VdW6>
-7.165

> <VdW12>
8.043

> <Bond>
0.134

> <Angle>
2.513

> <Pdih>
4.990

> <Idih>
0.001

> <Tether>
0.000

$$$$
VeraChem MOL file


 22 21  0  0  0  0  0  0  0  0999 V2000     
   21.3819   17.2821   19.3869 C   0  0  0  0  0  0  0  0  0  0  0  0
   21.5764   16.0885   19.5048 O   0  5  0  0  0  0  0  0  0  0  0  0
   22.1908   18.0517   18.9076 O   0  0  0  0  0  0  0  0  0  0  0  0
   20.0577   17.8486   19.8869 C   0  0  0  0  0  0  0  0  0  0  0  0
   19.2845   17.0844   19.7432 H   0  0  0  0  0  0  0  0  0  0  0  0
   19.7914   18.7028   19.2529 H   0  0  0  0  0  0  0  0  0  0  0  0
   20.1117   18.2827   21.3725 C   0  0  0  0  0  0  0  0  0  0  0  0
   20.3883   17.4191   21.9929 H   0  0  0  0  0  0  0  0  0  0  0  0
   20.9051   19.0319   21.4943 H   0  0  0  0  0  0  0  0  0  0  0  0
   18.7583   18.8570   21.8515 C   0  0  0  0  0  0  0  0  0  0  0  0
   17.9673   18.1217   21.6501 H   0  0  0  0  0  0  0  0  0  0  0  0
   18.5071   19.7520   21.2658 H   0  0  0  0  0  0  0  0  0  0  0  0
   18.7340   19.2016   23.3595 C   0  0  0  0  0  0  0  0  0  0  0  0
   17.7080   19.4802   23.6363 H   0  0  0  0  0  0  0  0  0  0  0  0
   18.9812   18.3059   23.9457 H   0  0  0  0  0  0  0  0  0  0  0  0
   19.6876   20.3553   23.7438 C   0  0  0  0  0  0  0  0  0  0  0  0
   19.4752   21.2349   23.1206 H   0  0  0  0  0  0  0  0  0  0  0  0
   20.7287   20.0672   23.5478 H   0  0  0  0  0  0  0  0  0  0  0  0
   19.5445   20.7353   25.2314 C   0  0  0  0  0  0  0  0  0  0  0  0
   19.7781   19.8801   25.8790 H   0  0  0  0  0  0  0  0  0  0  0  0
   18.5222   21.0666   25.4561 H   0  0  0  0  0  0  0  0  0  0  0  0
   20.2299   21.5531   25.4893 H   0  0  0  0  0  0  0  0  0  0  0  0
  1  2  1  0  0  0  0
  1  3  2  0  0  0  0
  1  4  1  0  0  0  0
  4  5  1  0  0  0  0
  4  6  1  0  0  0  0
  4  7  1  0  0  0  0
  7  8  1  0  0  0  0
  7  9  1  0  0  0  0
  7 10  1  0  0  0  0
 10 11  1  0  0  0  0
 10 12  1  0  0  0  0
 10 13  1  0  0  0  0
 13 14  1  0  0  0  0
 13 15  1  0  0  0  0
 13 16  1  0  0  0  0
 16 17  1  0  0  0  0
 16 18  1  0  0  0  0
 16 19  1  0  0  0  0
 19 20  1  0  0  0  0
 19 21  1  0  0  0  0
 19 22  1  0  0  0  0
M  END
> <VConfSearch Rank>
328

> <Conf_Id>
51

> <Delta U+W>
-0.517

> <U+W>
-53.677

> <U>
7.026

> <W>
-60.703

> <W(PB)>
-63.007

> <W(SA)>
2.304

> <Valence>
7.638

> <Coulomb>
-1.488

> <VdW>
0.877

> <VdW6>
-7.165

> <VdW12>
8.042

> <Bond>
0.134

> <Angle>
2.513

> <Pdih>
4.990

> <Idih>
0.001

> <Tether>
0.000

$$$$
VeraChem MOL file


 22 21  0  0  0  0  0  0  0  0999 V2000     
   20.8615   18.0649   19.0997 C   0  0  0  0  0  0  0  0  0  0  0  0
   20.6447   16.9026   18.8189 O   0  5  0  0  0  0  0  0  0  0  0  0
   20.3347   19.0028   18.5343 O   0  0  0  0  0  0  0  0  0  0  0  0
   21.8649   18.3610   20.2109 C   0  0  0  0  0  0  0  0  0  0  0  0
   22.2020   19.3998   20.1107 H   0  0  0  0  0  0  0  0  0  0  0  0
   22.7412   17.7249   20.0394 H   0  0  0  0  0  0  0  0  0  0  0  0
   21.3156   18.1117   21.6396 C   0  0  0  0  0  0  0  0  0  0  0  0
   20.9562   17.0760   21.7158 H   0  0  0  0  0  0  0  0  0  0  0  0
   22.1379   18.2148   22.3606 H   0  0  0  0  0  0  0  0  0  0  0  0
   20.1802   19.0889   22.0187 C   0  0  0  0  0  0  0  0  0  0  0  0
   19.3463   18.9794   21.3116 H   0  0  0  0  0  0  0  0  0  0  0  0
   20.5406   20.1228   21.9283 H   0  0  0  0  0  0  0  0  0  0  0  0
   19.6704   18.8434   23.4551 C   0  0  0  0  0  0  0  0  0  0  0  0
   19.3102   17.8093   23.5446 H   0  0  0  0  0  0  0  0  0  0  0  0
   20.5020   18.9551   24.1643 H   0  0  0  0  0  0  0  0  0  0  0  0
   18.5360   19.8184   23.8340 C   0  0  0  0  0  0  0  0  0  0  0  0
   17.7015   19.7082   23.1276 H   0  0  0  0  0  0  0  0  0  0  0  0
   18.8931   20.8539   23.7472 H   0  0  0  0  0  0  0  0  0  0  0  0
   18.0290   19.5698   25.2688 C   0  0  0  0  0  0  0  0  0  0  0  0
   17.6364   18.5501   25.3754 H   0  0  0  0  0  0  0  0  0  0  0  0
   17.2232   20.2713   25.5213 H   0  0  0  0  0  0  0  0  0  0  0  0
   18.8371   19.7044   25.9997 H   0  0  0  0  0  0  0  0  0  0  0  0
  1  2  1  0  0  0  0
  1  3  2  0  0  0  0
  1  4  1  0  0  0  0
  4  5  1  0  0  0  0
  4  6  1  0  0  0  0
  4  7  1  0  0  0  0
  7  8  1  0  0  0  0
  7  9  1  0  0  0  0
  7 10  1  0  0  0  0
 10 11  1  0  0  0  0
 10 12  1  0  0  0  0
 10 13  1  0  0  0  0
 13 14  1  0  0  0  0
 13 15  1  0  0  0  0
 13 16  1  0  0  0  0
 16 17  1  0  0  0  0
 16 18  1  0  0  0  0
 16 19  1  0  0  0  0
 19 20  1  0  0  0  0
 19 21  1  0  0  0  0
 19 22  1  0  0  0  0
M  END
> <VConfSearch Rank>
329

> <Conf_Id>
43

> <Delta U+W>
-0.129

> <U+W>
-53.289

> <U>
7.937

> <W>
-61.225

> <W(PB)>
-63.523

> <W(SA)>
2.297

> <Valence>
7.358

> <Coulomb>
-0.022

> <VdW>
0.601

> <VdW6>
-7.363

> <VdW12>
7.964

> <Bond>
0.121

> <Angle>
2.425

> <Pdih>
4.811

> <Idih>
0.000

> <Tether>
0.000

$$$$
VeraChem MOL file


 22 21  0  0  0  0  0  0  0  0999 V2000     
   19.3211   19.3241   18.9079 C   0  0  0  0  0  0  0  0  0  0  0  0
   18.5828   18.4767   18.4458 O   0  5  0  0  0  0  0  0  0  0  0  0
   20.4937   19.4307   18.6070 O   0  0  0  0  0  0  0  0  0  0  0  0
   18.7371   20.3192   19.9068 C   0  0  0  0  0  0  0  0  0  0  0  0
   17.7810   20.6692   19.5001 H   0  0  0  0  0  0  0  0  0  0  0  0
   19.3987   21.1925   19.9587 H   0  0  0  0  0  0  0  0  0  0  0  0
   18.5131   19.7321   21.3245 C   0  0  0  0  0  0  0  0  0  0  0  0
   17.9677   20.4666   21.9324 H   0  0  0  0  0  0  0  0  0  0  0  0
   17.8720   18.8424   21.2529 H   0  0  0  0  0  0  0  0  0  0  0  0
   19.8371   19.3674   22.0328 C   0  0  0  0  0  0  0  0  0  0  0  0
   20.4796   20.2568   22.0902 H   0  0  0  0  0  0  0  0  0  0  0  0
   20.3808   18.6198   21.4388 H   0  0  0  0  0  0  0  0  0  0  0  0
   19.5923   18.8147   23.4533 C   0  0  0  0  0  0  0  0  0  0  0  0
   19.0512   19.5617   24.0501 H   0  0  0  0  0  0  0  0  0  0  0  0
   18.9498   17.9253   23.3951 H   0  0  0  0  0  0  0  0  0  0  0  0
   20.9140   18.4496   24.1609 C   0  0  0  0  0  0  0  0  0  0  0  0
   21.5587   19.3373   24.2225 H   0  0  0  0  0  0  0  0  0  0  0  0
   21.4573   17.7011   23.5676 H   0  0  0  0  0  0  0  0  0  0  0  0
   20.6655   17.8974   25.5789 C   0  0  0  0  0  0  0  0  0  0  0  0
   20.1508   18.6385   26.2044 H   0  0  0  0  0  0  0  0  0  0  0  0
   21.6154   17.6432   26.0670 H   0  0  0  0  0  0  0  0  0  0  0  0
   20.0486   16.9899   25.5445 H   0  0  0  0  0  0  0  0  0  0  0  0
  1  2  1  0  0  0  0
  1  3  2  0  0  0  0
  1  4  1  0  0  0  0
  4  5  1  0  0  0  0
  4  6  1  0  0  0  0
  4  7  1  0  0  0  0
  7  8  1  0  0  0  0
  7  9  1  0  0  0  0
  7 10  1  0  0  0  0
 10 11  1  0  0  0  0
 10 12  1  0  0  0  0
 10 13  1  0  0  0  0
 13 14  1  0  0  0  0
 13 15  1  0  0  0  0
 13 16  1  0  0  0  0
 16 17  1  0  0  0  0
 16 18  1  0  0  0  0
 16 19  1  0  0  0  0
 19 20  1  0  0  0  0
 19 21  1  0  0  0  0
 19 22  1  0  0  0  0
M  END
> <VConfSearch Rank>
330

> <Conf_Id>
44

> <Delta U+W>
-0.155

> <U+W>
-53.314

> <U>
7.937

> <W>
-61.252

> <W(PB)>
-63.556

> <W(SA)>
2.304

> <Valence>
7.358

> <Coulomb>
-0.021

> <VdW>
0.600

> <VdW6>
-7.363

> <VdW12>
7.964

> <Bond>
0.121

> <Angle>
2.425

> <Pdih>
4.811

> <Idih>
0.001

> <Tether>
0.000

$$$$
VeraChem MOL file


 22 21  0  0  0  0  0  0  0  0999 V2000     
   19.7319   17.1479   25.3048 C   0  0  0  0  0  0  0  0  0  0  0  0
   19.5518   15.9656   25.0887 O   0  5  0  0  0  0  0  0  0  0  0  0
   19.1048   17.7837   26.1290 O   0  0  0  0  0  0  0  0  0  0  0  0
   20.8187   17.8669   24.5102 C   0  0  0  0  0  0  0  0  0  0  0  0
   21.7080   17.2257   24.5184 H   0  0  0  0  0  0  0  0  0  0  0  0
   21.0876   18.7893   25.0391 H   0  0  0  0  0  0  0  0  0  0  0  0
   20.4244   18.1858   23.0445 C   0  0  0  0  0  0  0  0  0  0  0  0
   21.3135   18.5555   22.5183 H   0  0  0  0  0  0  0  0  0  0  0  0
   20.1192   17.2587   22.5399 H   0  0  0  0  0  0  0  0  0  0  0  0
   19.2890   19.2332   22.9495 C   0  0  0  0  0  0  0  0  0  0  0  0
   19.6118   20.1733   23.4173 H   0  0  0  0  0  0  0  0  0  0  0  0
   18.4243   18.8810   23.5284 H   0  0  0  0  0  0  0  0  0  0  0  0
   18.8235   19.5084   21.4998 C   0  0  0  0  0  0  0  0  0  0  0  0
   18.5011   18.5680   21.0323 H   0  0  0  0  0  0  0  0  0  0  0  0
   17.9372   20.1564   21.5368 H   0  0  0  0  0  0  0  0  0  0  0  0
   19.9015   20.1842   20.6225 C   0  0  0  0  0  0  0  0  0  0  0  0
   20.7664   19.5184   20.5050 H   0  0  0  0  0  0  0  0  0  0  0  0
   20.2632   21.0965   21.1167 H   0  0  0  0  0  0  0  0  0  0  0  0
   19.3517   20.5418   19.2269 C   0  0  0  0  0  0  0  0  0  0  0  0
   19.0073   19.6430   18.6987 H   0  0  0  0  0  0  0  0  0  0  0  0
   20.1292   21.0175   18.6151 H   0  0  0  0  0  0  0  0  0  0  0  0
   18.5072   21.2392   19.3036 H   0  0  0  0  0  0  0  0  0  0  0  0
  1  2  1  0  0  0  0
  1  3  2  0  0  0  0
  1  4  1  0  0  0  0
  4  5  1  0  0  0  0
  4  6  1  0  0  0  0
  4  7  1  0  0  0  0
  7  8  1  0  0  0  0
  7  9  1  0  0  0  0
  7 10  1  0  0  0  0
 10 11  1  0  0  0  0
 10 12  1  0  0  0  0
 10 13  1  0  0  0  0
 13 14  1  0  0  0  0
 13 15  1  0  0  0  0
 13 16  1  0  0  0  0
 16 17  1  0  0  0  0
 16 18  1  0  0  0  0
 16 19  1  0  0  0  0
 19 20  1  0  0  0  0
 19 21  1  0  0  0  0
 19 22  1  0  0  0  0
M  END
> <VConfSearch Rank>
331

> <Conf_Id>
53

> <Delta U+W>
0.723

> <U+W>
-52.436

> <U>
8.587

> <W>
-61.022

> <W(PB)>
-63.285

> <W(SA)>
2.263

> <Valence>
7.933

> <Coulomb>
-0.124

> <VdW>
0.778

> <VdW6>
-7.981

> <VdW12>
8.759

> <Bond>
0.160

> <Angle>
2.698

> <Pdih>
5.074

> <Idih>
0.001

> <Tether>
0.000

$$$$
VeraChem MOL file


 22 21  0  0  0  0  0  0  0  0999 V2000     
   19.1230   20.8580   25.0439 C   0  0  0  0  0  0  0  0  0  0  0  0
   20.0526   20.7623   25.8207 O   0  5  0  0  0  0  0  0  0  0  0  0
   18.1703   21.5909   25.2222 O   0  0  0  0  0  0  0  0  0  0  0  0
   19.1647   20.0299   23.7647 C   0  0  0  0  0  0  0  0  0  0  0  0
   18.1333   19.7909   23.4794 H   0  0  0  0  0  0  0  0  0  0  0  0
   19.6707   19.0862   23.9975 H   0  0  0  0  0  0  0  0  0  0  0  0
   19.8881   20.7563   22.6027 C   0  0  0  0  0  0  0  0  0  0  0  0
   19.4469   21.7555   22.4835 H   0  0  0  0  0  0  0  0  0  0  0  0
   20.9404   20.9156   22.8757 H   0  0  0  0  0  0  0  0  0  0  0  0
   19.8105   20.0195   21.2419 C   0  0  0  0  0  0  0  0  0  0  0  0
   20.3126   20.6502   20.4956 H   0  0  0  0  0  0  0  0  0  0  0  0
   18.7650   19.9433   20.9130 H   0  0  0  0  0  0  0  0  0  0  0  0
   20.4827   18.6232   21.2243 C   0  0  0  0  0  0  0  0  0  0  0  0
   20.9582   18.4783   20.2446 H   0  0  0  0  0  0  0  0  0  0  0  0
   21.2926   18.5848   21.9656 H   0  0  0  0  0  0  0  0  0  0  0  0
   19.4884   17.4612   21.4521 C   0  0  0  0  0  0  0  0  0  0  0  0
   18.7173   17.4788   20.6696 H   0  0  0  0  0  0  0  0  0  0  0  0
   18.9667   17.5810   22.4091 H   0  0  0  0  0  0  0  0  0  0  0  0
   20.2019   16.0946   21.4322 C   0  0  0  0  0  0  0  0  0  0  0  0
   20.7016   15.9258   20.4693 H   0  0  0  0  0  0  0  0  0  0  0  0
   19.4825   15.2802   21.5881 H   0  0  0  0  0  0  0  0  0  0  0  0
   20.9580   16.0354   22.2261 H   0  0  0  0  0  0  0  0  0  0  0  0
  1  2  1  0  0  0  0
  1  3  2  0  0  0  0
  1  4  1  0  0  0  0
  4  5  1  0  0  0  0
  4  6  1  0  0  0  0
  4  7  1  0  0  0  0
  7  8  1  0  0  0  0
  7  9  1  0  0  0  0
  7 10  1  0  0  0  0
 10 11  1  0  0  0  0
 10 12  1  0  0  0  0
 10 13  1  0  0  0  0
 13 14  1  0  0  0  0
 13 15  1  0  0  0  0
 13 16  1  0  0  0  0
 16 17  1  0  0  0  0
 16 18  1  0  0  0  0
 16 19  1  0  0  0  0
 19 20  1  0  0  0  0
 19 21  1  0  0  0  0
 19 22  1  0  0  0  0
M  END
> <VConfSearch Rank>
332

> <Conf_Id>
5

> <Delta U+W>
2.167

> <U+W>
-50.993

> <U>
10.045

> <W>
-61.037

> <W(PB)>
-63.303

> <W(SA)>
2.266

> <Valence>
10.100

> <Coulomb>
-0.883

> <VdW>
0.828

> <VdW6>
-8.177

> <VdW12>
9.005

> <Bond>
0.182

> <Angle>
2.988

> <Pdih>
6.930

> <Idih>
0.001

> <Tether>
0.000

$$$$
VeraChem MOL file


 22 21  0  0  0  0  0  0  0  0999 V2000     
   22.8450   20.4345   22.4269 C   0  0  0  0  0  0  0  0  0  0  0  0
   23.4814   20.0164   23.3739 O   0  5  0  0  0  0  0  0  0  0  0  0
   23.2323   21.3256   21.6970 O   0  0  0  0  0  0  0  0  0  0  0  0
   21.4756   19.8235   22.1527 C   0  0  0  0  0  0  0  0  0  0  0  0
   21.5215   18.7665   22.4379 H   0  0  0  0  0  0  0  0  0  0  0  0
   21.2927   19.8672   21.0724 H   0  0  0  0  0  0  0  0  0  0  0  0
   20.3347   20.5391   22.9191 C   0  0  0  0  0  0  0  0  0  0  0  0
   20.4926   20.4159   23.9995 H   0  0  0  0  0  0  0  0  0  0  0  0
   20.3996   21.6178   22.7202 H   0  0  0  0  0  0  0  0  0  0  0  0
   18.9114   20.0552   22.5439 C   0  0  0  0  0  0  0  0  0  0  0  0
   18.7082   20.2655   21.4849 H   0  0  0  0  0  0  0  0  0  0  0  0
   18.1949   20.6644   23.1116 H   0  0  0  0  0  0  0  0  0  0  0  0
   18.6325   18.5636   22.8589 C   0  0  0  0  0  0  0  0  0  0  0  0
   19.2561   18.2326   23.7006 H   0  0  0  0  0  0  0  0  0  0  0  0
   17.5908   18.4678   23.1945 H   0  0  0  0  0  0  0  0  0  0  0  0
   18.8324   17.6321   21.6411 C   0  0  0  0  0  0  0  0  0  0  0  0
   19.8543   17.7175   21.2529 H   0  0  0  0  0  0  0  0  0  0  0  0
   18.1606   17.9407   20.8283 H   0  0  0  0  0  0  0  0  0  0  0  0
   18.5499   16.1602   22.0030 C   0  0  0  0  0  0  0  0  0  0  0  0
   19.2294   15.8130   22.7924 H   0  0  0  0  0  0  0  0  0  0  0  0
   18.6889   15.5129   21.1274 H   0  0  0  0  0  0  0  0  0  0  0  0
   17.5187   16.0334   22.3579 H   0  0  0  0  0  0  0  0  0  0  0  0
  1  2  1  0  0  0  0
  1  3  2  0  0  0  0
  1  4  1  0  0  0  0
  4  5  1  0  0  0  0
  4  6  1  0  0  0  0
  4  7  1  0  0  0  0
  7  8  1  0  0  0  0
  7  9  1  0  0  0  0
  7 10  1  0  0  0  0
 10 11  1  0  0  0  0
 10 12  1  0  0  0  0
 10 13  1  0  0  0  0
 13 14  1  0  0  0  0
 13 15  1  0  0  0  0
 13 16  1  0  0  0  0
 16 17  1  0  0  0  0
 16 18  1  0  0  0  0
 16 19  1  0  0  0  0
 19 20  1  0  0  0  0
 19 21  1  0  0  0  0
 19 22  1  0  0  0  0
M  END
> <VConfSearch Rank>
333

> <Conf_Id>
6

> <Delta U+W>
2.118

> <U+W>
-51.042

> <U>
10.045

> <W>
-61.086

> <W(PB)>
-63.356

> <W(SA)>
2.270

> <Valence>
10.100

> <Coulomb>
-0.883

> <VdW>
0.828

> <VdW6>
-8.177

> <VdW12>
9.004

> <Bond>
0.182

> <Angle>
2.988

> <Pdih>
6.930

> <Idih>
0.001

> <Tether>
0.000

$$$$
VeraChem MOL file


 22 21  0  0  0  0  0  0  0  0999 V2000     
   20.0476   21.4068   21.4848 C   0  0  0  0  0  0  0  0  0  0  0  0
   19.0629   22.0734   21.7364 O   0  5  0  0  0  0  0  0  0  0  0  0
   20.3144   20.9989   20.3714 O   0  0  0  0  0  0  0  0  0  0  0  0
   21.0400   21.1253   22.6115 C   0  0  0  0  0  0  0  0  0  0  0  0
   21.4308   22.0992   22.9282 H   0  0  0  0  0  0  0  0  0  0  0  0
   21.8899   20.5631   22.2059 H   0  0  0  0  0  0  0  0  0  0  0  0
   20.4496   20.3910   23.8481 C   0  0  0  0  0  0  0  0  0  0  0  0
   21.1181   20.5717   24.7006 H   0  0  0  0  0  0  0  0  0  0  0  0
   19.4833   20.8367   24.1224 H   0  0  0  0  0  0  0  0  0  0  0  0
   20.2998   18.8583   23.6832 C   0  0  0  0  0  0  0  0  0  0  0  0
   20.0260   18.4346   24.6591 H   0  0  0  0  0  0  0  0  0  0  0  0
   21.2708   18.4185   23.4173 H   0  0  0  0  0  0  0  0  0  0  0  0
   19.2367   18.4371   22.6435 C   0  0  0  0  0  0  0  0  0  0  0  0
   18.2917   18.9580   22.8501 H   0  0  0  0  0  0  0  0  0  0  0  0
   19.5573   18.7394   21.6386 H   0  0  0  0  0  0  0  0  0  0  0  0
   18.9999   16.9120   22.6554 C   0  0  0  0  0  0  0  0  0  0  0  0
   18.6694   16.5953   23.6543 H   0  0  0  0  0  0  0  0  0  0  0  0
   19.9447   16.3896   22.4506 H   0  0  0  0  0  0  0  0  0  0  0  0
   17.9457   16.4930   21.6112 C   0  0  0  0  0  0  0  0  0  0  0  0
   16.9811   16.9777   21.8110 H   0  0  0  0  0  0  0  0  0  0  0  0
   17.7904   15.4065   21.6322 H   0  0  0  0  0  0  0  0  0  0  0  0
   18.2652   16.7705   20.5980 H   0  0  0  0  0  0  0  0  0  0  0  0
  1  2  1  0  0  0  0
  1  3  2  0  0  0  0
  1  4  1  0  0  0  0
  4  5  1  0  0  0  0
  4  6  1  0  0  0  0
  4  7  1  0  0  0  0
  7  8  1  0  0  0  0
  7  9  1  0  0  0  0
  7 10  1  0  0  0  0
 10 11  1  0  0  0  0
 10 12  1  0  0  0  0
 10 13  1  0  0  0  0
 13 14  1  0  0  0  0
 13 15  1  0  0  0  0
 13 16  1  0  0  0  0
 16 17  1  0  0  0  0
 16 18  1  0  0  0  0
 16 19  1  0  0  0  0
 19 20  1  0  0  0  0
 19 21  1  0  0  0  0
 19 22  1  0  0  0  0
M  END
> <VConfSearch Rank>
334

> <Conf_Id>
8

> <Delta U+W>
1.886

> <U+W>
-51.274

> <U>
11.237

> <W>
-62.510

> <W(PB)>
-64.777

> <W(SA)>
2.267

> <Valence>
9.029

> <Coulomb>
1.667

> <VdW>
0.540

> <VdW6>
-8.825

> <VdW12>
9.365

> <Bond>
0.186

> <Angle>
3.195

> <Pdih>
5.642

> <Idih>
0.007

> <Tether>
0.000

$$$$
VeraChem MOL file


 22 21  0  0  0  0  0  0  0  0999 V2000     
   18.5597   16.1245   23.0368 C   0  0  0  0  0  0  0  0  0  0  0  0
   18.5162   16.3974   24.2202 O   0  5  0  0  0  0  0  0  0  0  0  0
   19.0128   15.0833   22.6034 O   0  0  0  0  0  0  0  0  0  0  0  0
   17.9875   17.1294   22.0408 C   0  0  0  0  0  0  0  0  0  0  0  0
   17.3806   17.8597   22.5877 H   0  0  0  0  0  0  0  0  0  0  0  0
   17.2980   16.5827   21.3870 H   0  0  0  0  0  0  0  0  0  0  0  0
   19.0590   17.8443   21.1724 C   0  0  0  0  0  0  0  0  0  0  0  0
   19.5923   17.0876   20.5805 H   0  0  0  0  0  0  0  0  0  0  0  0
   18.5572   18.5018   20.4498 H   0  0  0  0  0  0  0  0  0  0  0  0
   20.0960   18.6675   21.9760 C   0  0  0  0  0  0  0  0  0  0  0  0
   20.8490   19.0428   21.2716 H   0  0  0  0  0  0  0  0  0  0  0  0
   20.6282   18.0104   22.6773 H   0  0  0  0  0  0  0  0  0  0  0  0
   19.4740   19.8564   22.7487 C   0  0  0  0  0  0  0  0  0  0  0  0
   18.9242   20.5053   22.0536 H   0  0  0  0  0  0  0  0  0  0  0  0
   18.7396   19.4752   23.4699 H   0  0  0  0  0  0  0  0  0  0  0  0
   20.5147   20.6948   23.5271 C   0  0  0  0  0  0  0  0  0  0  0  0
   21.0768   20.0449   24.2120 H   0  0  0  0  0  0  0  0  0  0  0  0
   19.9811   21.4203   24.1564 H   0  0  0  0  0  0  0  0  0  0  0  0
   21.4954   21.4607   22.6124 C   0  0  0  0  0  0  0  0  0  0  0  0
   22.1397   20.7740   22.0496 H   0  0  0  0  0  0  0  0  0  0  0  0
   22.1470   22.1119   23.2093 H   0  0  0  0  0  0  0  0  0  0  0  0
   20.9534   22.0909   21.8955 H   0  0  0  0  0  0  0  0  0  0  0  0
  1  2  1  0  0  0  0
  1  3  2  0  0  0  0
  1  4  1  0  0  0  0
  4  5  1  0  0  0  0
  4  6  1  0  0  0  0
  4  7  1  0  0  0  0
  7  8  1  0  0  0  0
  7  9  1  0  0  0  0
  7 10  1  0  0  0  0
 10 11  1  0  0  0  0
 10 12  1  0  0  0  0
 10 13  1  0  0  0  0
 13 14  1  0  0  0  0
 13 15  1  0  0  0  0
 13 16  1  0  0  0  0
 16 17  1  0  0  0  0
 16 18  1  0  0  0  0
 16 19  1  0  0  0  0
 19 20  1  0  0  0  0
 19 21  1  0  0  0  0
 19 22  1  0  0  0  0
M  END
> <VConfSearch Rank>
335

> <Conf_Id>
93

> <Delta U+W>
1.836

> <U+W>
-51.323

> <U>
10.427

> <W>
-61.751

> <W(PB)>
-63.980

> <W(SA)>
2.230

> <Valence>
8.446

> <Coulomb>
1.306

> <VdW>
0.676

> <VdW6>
-8.928

> <VdW12>
9.604

> <Bond>
0.209

> <Angle>
3.066

> <Pdih>
5.170

> <Idih>
0.001

> <Tether>
0.000

$$$$
VeraChem MOL file


 22 21  0  0  0  0  0  0  0  0999 V2000     
   20.8308   21.8978   23.2034 C   0  0  0  0  0  0  0  0  0  0  0  0
   20.6521   22.9227   22.5750 O   0  5  0  0  0  0  0  0  0  0  0  0
   21.9251   21.3995   23.3791 O   0  0  0  0  0  0  0  0  0  0  0  0
   19.6168   21.2179   23.8305 C   0  0  0  0  0  0  0  0  0  0  0  0
   19.0623   21.9863   24.3818 H   0  0  0  0  0  0  0  0  0  0  0  0
   19.9652   20.4942   24.5759 H   0  0  0  0  0  0  0  0  0  0  0  0
   18.6685   20.5383   22.8048 C   0  0  0  0  0  0  0  0  0  0  0  0
   17.7989   20.1274   23.3352 H   0  0  0  0  0  0  0  0  0  0  0  0
   18.2781   21.3080   22.1249 H   0  0  0  0  0  0  0  0  0  0  0  0
   19.3268   19.4185   21.9613 C   0  0  0  0  0  0  0  0  0  0  0  0
   20.1769   19.8287   21.3991 H   0  0  0  0  0  0  0  0  0  0  0  0
   18.5957   19.0828   21.2153 H   0  0  0  0  0  0  0  0  0  0  0  0
   19.7975   18.2079   22.8041 C   0  0  0  0  0  0  0  0  0  0  0  0
   20.5474   18.5430   23.5323 H   0  0  0  0  0  0  0  0  0  0  0  0
   18.9545   17.8070   23.3831 H   0  0  0  0  0  0  0  0  0  0  0  0
   20.4282   17.0779   21.9571 C   0  0  0  0  0  0  0  0  0  0  0  0
   20.8621   16.3309   22.6359 H   0  0  0  0  0  0  0  0  0  0  0  0
   21.2620   17.4799   21.3650 H   0  0  0  0  0  0  0  0  0  0  0  0
   19.4193   16.3722   21.0249 C   0  0  0  0  0  0  0  0  0  0  0  0
   19.0473   17.0510   20.2476 H   0  0  0  0  0  0  0  0  0  0  0  0
   18.5594   15.9926   21.5920 H   0  0  0  0  0  0  0  0  0  0  0  0
   19.8942   15.5204   20.5211 H   0  0  0  0  0  0  0  0  0  0  0  0
  1  2  1  0  0  0  0
  1  3  2  0  0  0  0
  1  4  1  0  0  0  0
  4  5  1  0  0  0  0
  4  6  1  0  0  0  0
  4  7  1  0  0  0  0
  7  8  1  0  0  0  0
  7  9  1  0  0  0  0
  7 10  1  0  0  0  0
 10 11  1  0  0  0  0
 10 12  1  0  0  0  0
 10 13  1  0  0  0  0
 13 14  1  0  0  0  0
 13 15  1  0  0  0  0
 13 16  1  0  0  0  0
 16 17  1  0  0  0  0
 16 18  1  0  0  0  0
 16 19  1  0  0  0  0
 19 20  1  0  0  0  0
 19 21  1  0  0  0  0
 19 22  1  0  0  0  0
M  END
> <VConfSearch Rank>
336

> <Conf_Id>
70

> <Delta U+W>
1.803

> <U+W>
-51.356

> <U>
10.428

> <W>
-61.784

> <W(PB)>
-64.014

> <W(SA)>
2.230

> <Valence>
8.445

> <Coulomb>
1.306

> <VdW>
0.676

> <VdW6>
-8.929

> <VdW12>
9.605

> <Bond>
0.209

> <Angle>
3.066

> <Pdih>
5.170

> <Idih>
0.001

> <Tether>
0.000

$$$$
VeraChem MOL file


 22 21  0  0  0  0  0  0  0  0999 V2000     
   18.0876   19.5452   25.2563 C   0  0  0  0  0  0  0  0  0  0  0  0
   17.8153   20.7291   25.2239 O   0  5  0  0  0  0  0  0  0  0  0  0
   18.7255   19.0262   26.1511 O   0  0  0  0  0  0  0  0  0  0  0  0
   17.5817   18.6598   24.1208 C   0  0  0  0  0  0  0  0  0  0  0  0
   16.5343   18.9271   23.9376 H   0  0  0  0  0  0  0  0  0  0  0  0
   17.5883   17.6170   24.4604 H   0  0  0  0  0  0  0  0  0  0  0  0
   18.3900   18.8006   22.8048 C   0  0  0  0  0  0  0  0  0  0  0  0
   17.8826   18.2343   22.0122 H   0  0  0  0  0  0  0  0  0  0  0  0
   18.3852   19.8542   22.4957 H   0  0  0  0  0  0  0  0  0  0  0  0
   19.8442   18.2908   22.9461 C   0  0  0  0  0  0  0  0  0  0  0  0
   19.8263   17.2653   23.3395 H   0  0  0  0  0  0  0  0  0  0  0  0
   20.3818   18.8972   23.6881 H   0  0  0  0  0  0  0  0  0  0  0  0
   20.6296   18.2920   21.6131 C   0  0  0  0  0  0  0  0  0  0  0  0
   21.5996   17.8042   21.7805 H   0  0  0  0  0  0  0  0  0  0  0  0
   20.0980   17.6799   20.8717 H   0  0  0  0  0  0  0  0  0  0  0  0
   20.8721   19.7077   21.0429 C   0  0  0  0  0  0  0  0  0  0  0  0
   21.3564   20.3355   21.8035 H   0  0  0  0  0  0  0  0  0  0  0  0
   19.9149   20.1850   20.7954 H   0  0  0  0  0  0  0  0  0  0  0  0
   21.7528   19.6645   19.7778 C   0  0  0  0  0  0  0  0  0  0  0  0
   22.7355   19.2271   19.9975 H   0  0  0  0  0  0  0  0  0  0  0  0
   21.9131   20.6764   19.3835 H   0  0  0  0  0  0  0  0  0  0  0  0
   21.2786   19.0648   18.9899 H   0  0  0  0  0  0  0  0  0  0  0  0
  1  2  1  0  0  0  0
  1  3  2  0  0  0  0
  1  4  1  0  0  0  0
  4  5  1  0  0  0  0
  4  6  1  0  0  0  0
  4  7  1  0  0  0  0
  7  8  1  0  0  0  0
  7  9  1  0  0  0  0
  7 10  1  0  0  0  0
 10 11  1  0  0  0  0
 10 12  1  0  0  0  0
 10 13  1  0  0  0  0
 13 14  1  0  0  0  0
 13 15  1  0  0  0  0
 13 16  1  0  0  0  0
 16 17  1  0  0  0  0
 16 18  1  0  0  0  0
 16 19  1  0  0  0  0
 19 20  1  0  0  0  0
 19 21  1  0  0  0  0
 19 22  1  0  0  0  0
M  END
> <VConfSearch Rank>
337

> <Conf_Id>
85

> <Delta U+W>
0.707

> <U+W>
-52.452

> <U>
8.925

> <W>
-61.378

> <W(PB)>
-63.661

> <W(SA)>
2.283

> <Valence>
7.881

> <Coulomb>
0.349

> <VdW>
0.695

> <VdW6>
-8.049

> <VdW12>
8.743

> <Bond>
0.156

> <Angle>
2.660

> <Pdih>
5.064

> <Idih>
0.001

> <Tether>
0.000

$$$$
VeraChem MOL file


 22 21  0  0  0  0  0  0  0  0999 V2000     
   16.7780   18.0599   23.3528 C   0  0  0  0  0  0  0  0  0  0  0  0
   15.9276   18.4534   22.5789 O   0  5  0  0  0  0  0  0  0  0  0  0
   16.8070   16.9312   23.8024 O   0  0  0  0  0  0  0  0  0  0  0  0
   17.8559   19.0418   23.8039 C   0  0  0  0  0  0  0  0  0  0  0  0
   17.9481   18.9482   24.8923 H   0  0  0  0  0  0  0  0  0  0  0  0
   17.5082   20.0620   23.6013 H   0  0  0  0  0  0  0  0  0  0  0  0
   19.2408   18.8076   23.1460 C   0  0  0  0  0  0  0  0  0  0  0  0
   19.9743   19.4523   23.6462 H   0  0  0  0  0  0  0  0  0  0  0  0
   19.5551   17.7686   23.3166 H   0  0  0  0  0  0  0  0  0  0  0  0
   19.2395   19.1151   21.6306 C   0  0  0  0  0  0  0  0  0  0  0  0
   19.0080   20.1775   21.4741 H   0  0  0  0  0  0  0  0  0  0  0  0
   18.4294   18.5508   21.1486 H   0  0  0  0  0  0  0  0  0  0  0  0
   20.5651   18.7648   20.9091 C   0  0  0  0  0  0  0  0  0  0  0  0
   20.7587   17.6858   20.9803 H   0  0  0  0  0  0  0  0  0  0  0  0
   20.4231   18.9721   19.8396 H   0  0  0  0  0  0  0  0  0  0  0  0
   21.7996   19.5649   21.3947 C   0  0  0  0  0  0  0  0  0  0  0  0
   21.4892   20.5414   21.7913 H   0  0  0  0  0  0  0  0  0  0  0  0
   22.4427   19.7775   20.5295 H   0  0  0  0  0  0  0  0  0  0  0  0
   22.6444   18.8051   22.4415 C   0  0  0  0  0  0  0  0  0  0  0  0
   22.0659   18.5727   23.3427 H   0  0  0  0  0  0  0  0  0  0  0  0
   23.5109   19.4065   22.7453 H   0  0  0  0  0  0  0  0  0  0  0  0
   23.0203   17.8603   22.0279 H   0  0  0  0  0  0  0  0  0  0  0  0
  1  2  1  0  0  0  0
  1  3  2  0  0  0  0
  1  4  1  0  0  0  0
  4  5  1  0  0  0  0
  4  6  1  0  0  0  0
  4  7  1  0  0  0  0
  7  8  1  0  0  0  0
  7  9  1  0  0  0  0
  7 10  1  0  0  0  0
 10 11  1  0  0  0  0
 10 12  1  0  0  0  0
 10 13  1  0  0  0  0
 13 14  1  0  0  0  0
 13 15  1  0  0  0  0
 13 16  1  0  0  0  0
 16 17  1  0  0  0  0
 16 18  1  0  0  0  0
 16 19  1  0  0  0  0
 19 20  1  0  0  0  0
 19 21  1  0  0  0  0
 19 22  1  0  0  0  0
M  END
> <VConfSearch Rank>
338

> <Conf_Id>
82

> <Delta U+W>
3.438

> <U+W>
-49.721

> <U>
11.773

> <W>
-61.495

> <W(PB)>
-63.749

> <W(SA)>
2.254

> <Valence>
10.419

> <Coulomb>
0.565

> <VdW>
0.789

> <VdW6>
-8.847

> <VdW12>
9.636

> <Bond>
0.200

> <Angle>
3.187

> <Pdih>
7.032

> <Idih>
0.001

> <Tether>
0.000

$$$$
VeraChem MOL file


 22 21  0  0  0  0  0  0  0  0999 V2000     
   23.0785   19.7387   21.6779 C   0  0  0  0  0  0  0  0  0  0  0  0
   23.0606   20.6848   20.9154 O   0  5  0  0  0  0  0  0  0  0  0  0
   23.8046   19.6727   22.6502 O   0  0  0  0  0  0  0  0  0  0  0  0
   22.1545   18.5601   21.3836 C   0  0  0  0  0  0  0  0  0  0  0  0
   22.5219   17.6817   21.9280 H   0  0  0  0  0  0  0  0  0  0  0  0
   22.2459   18.3323   20.3151 H   0  0  0  0  0  0  0  0  0  0  0  0
   20.6655   18.8210   21.7309 C   0  0  0  0  0  0  0  0  0  0  0  0
   20.3244   19.7298   21.2161 H   0  0  0  0  0  0  0  0  0  0  0  0
   20.0687   17.9868   21.3412 H   0  0  0  0  0  0  0  0  0  0  0  0
   20.4240   18.9556   23.2523 C   0  0  0  0  0  0  0  0  0  0  0  0
   21.1041   19.7161   23.6596 H   0  0  0  0  0  0  0  0  0  0  0  0
   20.6875   18.0116   23.7484 H   0  0  0  0  0  0  0  0  0  0  0  0
   18.9755   19.3514   23.6339 C   0  0  0  0  0  0  0  0  0  0  0  0
   18.9432   19.4708   24.7255 H   0  0  0  0  0  0  0  0  0  0  0  0
   18.7335   20.3394   23.2189 H   0  0  0  0  0  0  0  0  0  0  0  0
   17.8927   18.3197   23.2302 C   0  0  0  0  0  0  0  0  0  0  0  0
   17.1239   18.2925   24.0147 H   0  0  0  0  0  0  0  0  0  0  0  0
   18.3241   17.3100   23.1906 H   0  0  0  0  0  0  0  0  0  0  0  0
   17.1974   18.6585   21.8927 C   0  0  0  0  0  0  0  0  0  0  0  0
   16.7005   19.6358   21.9482 H   0  0  0  0  0  0  0  0  0  0  0  0
   16.4334   17.9067   21.6561 H   0  0  0  0  0  0  0  0  0  0  0  0
   17.9078   18.6876   21.0588 H   0  0  0  0  0  0  0  0  0  0  0  0
  1  2  1  0  0  0  0
  1  3  2  0  0  0  0
  1  4  1  0  0  0  0
  4  5  1  0  0  0  0
  4  6  1  0  0  0  0
  4  7  1  0  0  0  0
  7  8  1  0  0  0  0
  7  9  1  0  0  0  0
  7 10  1  0  0  0  0
 10 11  1  0  0  0  0
 10 12  1  0  0  0  0
 10 13  1  0  0  0  0
 13 14  1  0  0  0  0
 13 15  1  0  0  0  0
 13 16  1  0  0  0  0
 16 17  1  0  0  0  0
 16 18  1  0  0  0  0
 16 19  1  0  0  0  0
 19 20  1  0  0  0  0
 19 21  1  0  0  0  0
 19 22  1  0  0  0  0
M  END
> <VConfSearch Rank>
339

> <Conf_Id>
94

> <Delta U+W>
3.471

> <U+W>
-49.688

> <U>
11.773

> <W>
-61.461

> <W(PB)>
-63.710

> <W(SA)>
2.248

> <Valence>
10.419

> <Coulomb>
0.566

> <VdW>
0.789

> <VdW6>
-8.847

> <VdW12>
9.636

> <Bond>
0.200

> <Angle>
3.187

> <Pdih>
7.032

> <Idih>
0.001

> <Tether>
0.000

$$$$
VeraChem MOL file


 22 21  0  0  0  0  0  0  0  0999 V2000     
   18.8324   21.7552   24.0785 C   0  0  0  0  0  0  0  0  0  0  0  0
   18.2941   22.7896   23.7364 O   0  5  0  0  0  0  0  0  0  0  0  0
   19.5701   21.6670   25.0401 O   0  0  0  0  0  0  0  0  0  0  0  0
   18.5835   20.5040   23.2439 C   0  0  0  0  0  0  0  0  0  0  0  0
   17.5659   20.5607   22.8394 H   0  0  0  0  0  0  0  0  0  0  0  0
   18.6187   19.6407   23.9180 H   0  0  0  0  0  0  0  0  0  0  0  0
   19.6083   20.3371   22.0923 C   0  0  0  0  0  0  0  0  0  0  0  0
   19.6073   21.2517   21.4835 H   0  0  0  0  0  0  0  0  0  0  0  0
   20.6202   20.2517   22.5102 H   0  0  0  0  0  0  0  0  0  0  0  0
   19.3097   19.1291   21.1693 C   0  0  0  0  0  0  0  0  0  0  0  0
   20.0461   19.1137   20.3551 H   0  0  0  0  0  0  0  0  0  0  0  0
   18.3357   19.2847   20.6859 H   0  0  0  0  0  0  0  0  0  0  0  0
   19.2970   17.7469   21.8739 C   0  0  0  0  0  0  0  0  0  0  0  0
   18.4540   17.7044   22.5759 H   0  0  0  0  0  0  0  0  0  0  0  0
   19.0951   16.9725   21.1215 H   0  0  0  0  0  0  0  0  0  0  0  0
   20.5980   17.3803   22.6295 C   0  0  0  0  0  0  0  0  0  0  0  0
   20.4618   16.4000   23.1063 H   0  0  0  0  0  0  0  0  0  0  0  0
   20.7748   18.0933   23.4459 H   0  0  0  0  0  0  0  0  0  0  0  0
   21.8389   17.3190   21.7129 C   0  0  0  0  0  0  0  0  0  0  0  0
   21.6774   16.6233   20.8793 H   0  0  0  0  0  0  0  0  0  0  0  0
   22.7161   16.9752   22.2761 H   0  0  0  0  0  0  0  0  0  0  0  0
   22.0762   18.3062   21.2969 H   0  0  0  0  0  0  0  0  0  0  0  0
  1  2  1  0  0  0  0
  1  3  2  0  0  0  0
  1  4  1  0  0  0  0
  4  5  1  0  0  0  0
  4  6  1  0  0  0  0
  4  7  1  0  0  0  0
  7  8  1  0  0  0  0
  7  9  1  0  0  0  0
  7 10  1  0  0  0  0
 10 11  1  0  0  0  0
 10 12  1  0  0  0  0
 10 13  1  0  0  0  0
 13 14  1  0  0  0  0
 13 15  1  0  0  0  0
 13 16  1  0  0  0  0
 16 17  1  0  0  0  0
 16 18  1  0  0  0  0
 16 19  1  0  0  0  0
 19 20  1  0  0  0  0
 19 21  1  0  0  0  0
 19 22  1  0  0  0  0
M  END
> <VConfSearch Rank>
340

> <Conf_Id>
56

> <Delta U+W>
0.853

> <U+W>
-52.307

> <U>
8.874

> <W>
-61.181

> <W(PB)>
-63.413

> <W(SA)>
2.232

> <Valence>
8.479

> <Coulomb>
-0.357

> <VdW>
0.753

> <VdW6>
-9.081

> <VdW12>
9.833

> <Bond>
0.221

> <Angle>
3.208

> <Pdih>
5.050

> <Idih>
0.000

> <Tether>
0.000

$$$$
VeraChem MOL file


 22 21  0  0  0  0  0  0  0  0999 V2000     
   19.5665   21.7545   19.2433 C   0  0  0  0  0  0  0  0  0  0  0  0
   20.0940   22.6088   19.9292 O   0  5  0  0  0  0  0  0  0  0  0  0
   19.1903   21.9559   18.1058 O   0  0  0  0  0  0  0  0  0  0  0  0
   19.3524   20.3505   19.8111 C   0  0  0  0  0  0  0  0  0  0  0  0
   19.8598   19.6461   19.1415 H   0  0  0  0  0  0  0  0  0  0  0  0
   18.2794   20.1338   19.7514 H   0  0  0  0  0  0  0  0  0  0  0  0
   19.8495   20.1414   21.2663 C   0  0  0  0  0  0  0  0  0  0  0  0
   20.9238   20.3662   21.3203 H   0  0  0  0  0  0  0  0  0  0  0  0
   19.3418   20.8542   21.9309 H   0  0  0  0  0  0  0  0  0  0  0  0
   19.5950   18.7001   21.7586 C   0  0  0  0  0  0  0  0  0  0  0  0
   20.1035   17.9894   21.0927 H   0  0  0  0  0  0  0  0  0  0  0  0
   18.5204   18.4776   21.7035 H   0  0  0  0  0  0  0  0  0  0  0  0
   20.0901   18.4943   23.2063 C   0  0  0  0  0  0  0  0  0  0  0  0
   21.1646   18.7167   23.2619 H   0  0  0  0  0  0  0  0  0  0  0  0
   19.5818   19.2048   23.8726 H   0  0  0  0  0  0  0  0  0  0  0  0
   19.8360   17.0542   23.6989 C   0  0  0  0  0  0  0  0  0  0  0  0
   20.3447   16.3407   23.0359 H   0  0  0  0  0  0  0  0  0  0  0  0
   18.7618   16.8287   23.6465 H   0  0  0  0  0  0  0  0  0  0  0  0
   20.3318   16.8528   25.1449 C   0  0  0  0  0  0  0  0  0  0  0  0
   21.4108   17.0414   25.2201 H   0  0  0  0  0  0  0  0  0  0  0  0
   20.1434   15.8242   25.4787 H   0  0  0  0  0  0  0  0  0  0  0  0
   19.8159   17.5331   25.8353 H   0  0  0  0  0  0  0  0  0  0  0  0
  1  2  1  0  0  0  0
  1  3  2  0  0  0  0
  1  4  1  0  0  0  0
  4  5  1  0  0  0  0
  4  6  1  0  0  0  0
  4  7  1  0  0  0  0
  7  8  1  0  0  0  0
  7  9  1  0  0  0  0
  7 10  1  0  0  0  0
 10 11  1  0  0  0  0
 10 12  1  0  0  0  0
 10 13  1  0  0  0  0
 13 14  1  0  0  0  0
 13 15  1  0  0  0  0
 13 16  1  0  0  0  0
 16 17  1  0  0  0  0
 16 18  1  0  0  0  0
 16 19  1  0  0  0  0
 19 20  1  0  0  0  0
 19 21  1  0  0  0  0
 19 22  1  0  0  0  0
M  END
> <VConfSearch Rank>
341

> <Conf_Id>
0

> <Delta U+W>
0.000

> <U+W>
-53.159

> <U>
6.763

> <W>
-59.922

> <W(PB)>
-62.256

> <W(SA)>
2.334

> <Valence>
7.600

> <Coulomb>
-2.139

> <VdW>
1.302

> <VdW6>
-6.786

> <VdW12>
8.088

> <Bond>
0.134

> <Angle>
2.720

> <Pdih>
4.746

> <Idih>
0.000

> <Tether>
0.000

$$$$
VeraChem MOL file


 22 21  0  0  0  0  0  0  0  0999 V2000     
   20.3447   22.3111   24.3554 C   0  0  0  0  0  0  0  0  0  0  0  0
   20.2309   22.1466   25.5539 O   0  5  0  0  0  0  0  0  0  0  0  0
   20.0386   23.3394   23.7851 O   0  0  0  0  0  0  0  0  0  0  0  0
   20.8802   21.1553   23.5177 C   0  0  0  0  0  0  0  0  0  0  0  0
   21.5958   20.5936   24.1302 H   0  0  0  0  0  0  0  0  0  0  0  0
   21.4376   21.5767   22.6725 H   0  0  0  0  0  0  0  0  0  0  0  0
   19.7618   20.2151   23.0049 C   0  0  0  0  0  0  0  0  0  0  0  0
   19.2051   19.8119   23.8624 H   0  0  0  0  0  0  0  0  0  0  0  0
   19.0470   20.7951   22.4047 H   0  0  0  0  0  0  0  0  0  0  0  0
   20.3293   19.0540   22.1602 C   0  0  0  0  0  0  0  0  0  0  0  0
   21.0443   18.4770   22.7627 H   0  0  0  0  0  0  0  0  0  0  0  0
   20.8862   19.4604   21.3047 H   0  0  0  0  0  0  0  0  0  0  0  0
   19.2121   18.1184   21.6504 C   0  0  0  0  0  0  0  0  0  0  0  0
   18.6550   17.7118   22.5056 H   0  0  0  0  0  0  0  0  0  0  0  0
   18.4968   18.6950   21.0478 H   0  0  0  0  0  0  0  0  0  0  0  0
   19.7785   16.9577   20.8060 C   0  0  0  0  0  0  0  0  0  0  0  0
   20.4930   16.3773   21.4061 H   0  0  0  0  0  0  0  0  0  0  0  0
   20.3349   17.3605   19.9483 H   0  0  0  0  0  0  0  0  0  0  0  0
   18.6598   16.0257   20.2988 C   0  0  0  0  0  0  0  0  0  0  0  0
   17.9471   16.5742   19.6689 H   0  0  0  0  0  0  0  0  0  0  0  0
   18.1064   15.5837   21.1377 H   0  0  0  0  0  0  0  0  0  0  0  0
   19.0800   15.2066   19.7009 H   0  0  0  0  0  0  0  0  0  0  0  0
  1  2  1  0  0  0  0
  1  3  2  0  0  0  0
  1  4  1  0  0  0  0
  4  5  1  0  0  0  0
  4  6  1  0  0  0  0
  4  7  1  0  0  0  0
  7  8  1  0  0  0  0
  7  9  1  0  0  0  0
  7 10  1  0  0  0  0
 10 11  1  0  0  0  0
 10 12  1  0  0  0  0
 10 13  1  0  0  0  0
 13 14  1  0  0  0  0
 13 15  1  0  0  0  0
 13 16  1  0  0  0  0
 16 17  1  0  0  0  0
 16 18  1  0  0  0  0
 16 19  1  0  0  0  0
 19 20  1  0  0  0  0
 19 21  1  0  0  0  0
 19 22  1  0  0  0  0
M  END
> <VConfSearch Rank>
342

> <Conf_Id>
10

> <Delta U+W>
-1.291

> <U+W>
-54.451

> <U>
5.779

> <W>
-60.230

> <W(PB)>
-62.557

> <W(SA)>
2.328

> <Valence>
7.101

> <Coulomb>
-2.079

> <VdW>
0.757

> <VdW6>
-6.496

> <VdW12>
7.253

> <Bond>
0.100

> <Angle>
2.262

> <Pdih>
4.738

> <Idih>
0.001

> <Tether>
0.000

$$$$
VeraChem MOL file


 22 21  0  0  0  0  0  0  0  0999 V2000     
   20.6306   21.4778   19.3630 C   0  0  0  0  0  0  0  0  0  0  0  0
   19.7589   21.5036   18.5169 O   0  5  0  0  0  0  0  0  0  0  0  0
   21.3557   22.4208   19.6114 O   0  0  0  0  0  0  0  0  0  0  0  0
   20.8108   20.1985   20.1724 C   0  0  0  0  0  0  0  0  0  0  0  0
   21.8729   20.1041   20.4287 H   0  0  0  0  0  0  0  0  0  0  0  0
   20.5561   19.3487   19.5276 H   0  0  0  0  0  0  0  0  0  0  0  0
   19.9466   20.1724   21.4572 C   0  0  0  0  0  0  0  0  0  0  0  0
   20.2043   21.0366   22.0850 H   0  0  0  0  0  0  0  0  0  0  0  0
   18.8875   20.2805   21.1845 H   0  0  0  0  0  0  0  0  0  0  0  0
   20.1468   18.8676   22.2583 C   0  0  0  0  0  0  0  0  0  0  0  0
   21.2058   18.7633   22.5312 H   0  0  0  0  0  0  0  0  0  0  0  0
   19.8936   18.0111   21.6200 H   0  0  0  0  0  0  0  0  0  0  0  0
   19.2793   18.8449   23.5378 C   0  0  0  0  0  0  0  0  0  0  0  0
   19.4936   19.7445   24.1310 H   0  0  0  0  0  0  0  0  0  0  0  0
   18.2163   18.8979   23.2654 H   0  0  0  0  0  0  0  0  0  0  0  0
   19.5244   17.6022   24.4249 C   0  0  0  0  0  0  0  0  0  0  0  0
   18.9624   17.7213   25.3614 H   0  0  0  0  0  0  0  0  0  0  0  0
   20.5857   17.5494   24.7045 H   0  0  0  0  0  0  0  0  0  0  0  0
   19.0975   16.2785   23.7542 C   0  0  0  0  0  0  0  0  0  0  0  0
   19.2079   15.4405   24.4545 H   0  0  0  0  0  0  0  0  0  0  0  0
   19.7137   16.0584   22.8735 H   0  0  0  0  0  0  0  0  0  0  0  0
   18.0468   16.3190   23.4386 H   0  0  0  0  0  0  0  0  0  0  0  0
  1  2  1  0  0  0  0
  1  3  2  0  0  0  0
  1  4  1  0  0  0  0
  4  5  1  0  0  0  0
  4  6  1  0  0  0  0
  4  7  1  0  0  0  0
  7  8  1  0  0  0  0
  7  9  1  0  0  0  0
  7 10  1  0  0  0  0
 10 11  1  0  0  0  0
 10 12  1  0  0  0  0
 10 13  1  0  0  0  0
 13 14  1  0  0  0  0
 13 15  1  0  0  0  0
 13 16  1  0  0  0  0
 16 17  1  0  0  0  0
 16 18  1  0  0  0  0
 16 19  1  0  0  0  0
 19 20  1  0  0  0  0
 19 21  1  0  0  0  0
 19 22  1  0  0  0  0
M  END
> <VConfSearch Rank>
343

> <Conf_Id>
37

> <Delta U+W>
-0.345

> <U+W>
-53.504

> <U>
6.751

> <W>
-60.255

> <W(PB)>
-62.592

> <W(SA)>
2.336

> <Valence>
7.602

> <Coulomb>
-1.744

> <VdW>
0.894

> <VdW6>
-7.110

> <VdW12>
8.004

> <Bond>
0.131

> <Angle>
2.489

> <Pdih>
4.982

> <Idih>
0.001

> <Tether>
0.000

$$$$
VeraChem MOL file


 22 21  0  0  0  0  0  0  0  0999 V2000     
   21.3359   20.3545   25.5183 C   0  0  0  0  0  0  0  0  0  0  0  0
   21.2705   19.5523   26.4285 O   0  5  0  0  0  0  0  0  0  0  0  0
   21.3724   21.5578   25.6831 O   0  0  0  0  0  0  0  0  0  0  0  0
   21.3509   19.8227   24.0896 C   0  0  0  0  0  0  0  0  0  0  0  0
   21.8658   18.8545   24.0918 H   0  0  0  0  0  0  0  0  0  0  0  0
   21.9504   20.5073   23.4775 H   0  0  0  0  0  0  0  0  0  0  0  0
   19.9317   19.6721   23.4885 C   0  0  0  0  0  0  0  0  0  0  0  0
   19.3405   18.9938   24.1193 H   0  0  0  0  0  0  0  0  0  0  0  0
   19.4252   20.6471   23.5061 H   0  0  0  0  0  0  0  0  0  0  0  0
   19.9742   19.1326   22.0423 C   0  0  0  0  0  0  0  0  0  0  0  0
   20.4883   18.1626   22.0351 H   0  0  0  0  0  0  0  0  0  0  0  0
   20.5640   19.8137   21.4136 H   0  0  0  0  0  0  0  0  0  0  0  0
   18.5550   18.9803   21.4482 C   0  0  0  0  0  0  0  0  0  0  0  0
   17.9788   18.2605   22.0455 H   0  0  0  0  0  0  0  0  0  0  0  0
   18.0293   19.9417   21.5274 H   0  0  0  0  0  0  0  0  0  0  0  0
   18.5530   18.5406   19.9656 C   0  0  0  0  0  0  0  0  0  0  0  0
   19.1231   19.2619   19.3638 H   0  0  0  0  0  0  0  0  0  0  0  0
   17.5208   18.5710   19.5904 H   0  0  0  0  0  0  0  0  0  0  0  0
   19.1190   17.1205   19.7483 C   0  0  0  0  0  0  0  0  0  0  0  0
   18.5835   16.3857   20.3635 H   0  0  0  0  0  0  0  0  0  0  0  0
   20.1852   17.0709   20.0020 H   0  0  0  0  0  0  0  0  0  0  0  0
   19.0136   16.8222   18.6972 H   0  0  0  0  0  0  0  0  0  0  0  0
  1  2  1  0  0  0  0
  1  3  2  0  0  0  0
  1  4  1  0  0  0  0
  4  5  1  0  0  0  0
  4  6  1  0  0  0  0
  4  7  1  0  0  0  0
  7  8  1  0  0  0  0
  7  9  1  0  0  0  0
  7 10  1  0  0  0  0
 10 11  1  0  0  0  0
 10 12  1  0  0  0  0
 10 13  1  0  0  0  0
 13 14  1  0  0  0  0
 13 15  1  0  0  0  0
 13 16  1  0  0  0  0
 16 17  1  0  0  0  0
 16 18  1  0  0  0  0
 16 19  1  0  0  0  0
 19 20  1  0  0  0  0
 19 21  1  0  0  0  0
 19 22  1  0  0  0  0
M  END
> <VConfSearch Rank>
344

> <Conf_Id>
38

> <Delta U+W>
-0.439

> <U+W>
-53.598

> <U>
6.751

> <W>
-60.350

> <W(PB)>
-62.659

> <W(SA)>
2.309

> <Valence>
7.602

> <Coulomb>
-1.744

> <VdW>
0.893

> <VdW6>
-7.110

> <VdW12>
8.004

> <Bond>
0.131

> <Angle>
2.489

> <Pdih>
4.981

> <Idih>
0.001

> <Tether>
0.000

$$$$
VeraChem MOL file


 22 21  0  0  0  0  0  0  0  0999 V2000     
   20.1845   16.1276   24.6310 C   0  0  0  0  0  0  0  0  0  0  0  0
   19.3498   15.2517   24.7437 O   0  5  0  0  0  0  0  0  0  0  0  0
   21.0077   16.3864   25.4866 O   0  0  0  0  0  0  0  0  0  0  0  0
   20.1843   16.9627   23.3555 C   0  0  0  0  0  0  0  0  0  0  0  0
   19.8427   16.3247   22.5316 H   0  0  0  0  0  0  0  0  0  0  0  0
   21.2216   17.2432   23.1417 H   0  0  0  0  0  0  0  0  0  0  0  0
   19.2865   18.2228   23.4641 C   0  0  0  0  0  0  0  0  0  0  0  0
   18.2798   17.9106   23.7747 H   0  0  0  0  0  0  0  0  0  0  0  0
   19.6670   18.8778   24.2600 H   0  0  0  0  0  0  0  0  0  0  0  0
   19.1710   19.0187   22.1420 C   0  0  0  0  0  0  0  0  0  0  0  0
   18.4115   19.7987   22.2808 H   0  0  0  0  0  0  0  0  0  0  0  0
   18.7984   18.3590   21.3467 H   0  0  0  0  0  0  0  0  0  0  0  0
   20.5033   19.6716   21.6985 C   0  0  0  0  0  0  0  0  0  0  0  0
   20.8766   20.3300   22.4947 H   0  0  0  0  0  0  0  0  0  0  0  0
   21.2628   18.8925   21.5564 H   0  0  0  0  0  0  0  0  0  0  0  0
   20.3862   20.4707   20.3794 C   0  0  0  0  0  0  0  0  0  0  0  0
   20.0021   19.8184   19.5830 H   0  0  0  0  0  0  0  0  0  0  0  0
   21.3926   20.7817   20.0668 H   0  0  0  0  0  0  0  0  0  0  0  0
   19.4954   21.7264   20.4988 C   0  0  0  0  0  0  0  0  0  0  0  0
   18.4487   21.4598   20.6907 H   0  0  0  0  0  0  0  0  0  0  0  0
   19.5240   22.3066   19.5674 H   0  0  0  0  0  0  0  0  0  0  0  0
   19.8406   22.3772   21.3127 H   0  0  0  0  0  0  0  0  0  0  0  0
  1  2  1  0  0  0  0
  1  3  2  0  0  0  0
  1  4  1  0  0  0  0
  4  5  1  0  0  0  0
  4  6  1  0  0  0  0
  4  7  1  0  0  0  0
  7  8  1  0  0  0  0
  7  9  1  0  0  0  0
  7 10  1  0  0  0  0
 10 11  1  0  0  0  0
 10 12  1  0  0  0  0
 10 13  1  0  0  0  0
 13 14  1  0  0  0  0
 13 15  1  0  0  0  0
 13 16  1  0  0  0  0
 16 17  1  0  0  0  0
 16 18  1  0  0  0  0
 16 19  1  0  0  0  0
 19 20  1  0  0  0  0
 19 21  1  0  0  0  0
 19 22  1  0  0  0  0
M  END
> <VConfSearch Rank>
345

> <Conf_Id>
60

> <Delta U+W>
0.386

> <U+W>
-52.773

> <U>
7.689

> <W>
-60.463

> <W(PB)>
-62.772

> <W(SA)>
2.309

> <Valence>
8.197

> <Coulomb>
-1.561

> <VdW>
1.053

> <VdW6>
-7.737

> <VdW12>
8.790

> <Bond>
0.181

> <Angle>
2.780

> <Pdih>
5.235

> <Idih>
0.001

> <Tether>
0.000

$$$$
VeraChem MOL file


 22 21  0  0  0  0  0  0  0  0999 V2000     
   22.6470   20.3265   24.3407 C   0  0  0  0  0  0  0  0  0  0  0  0
   23.6727   19.7100   24.1302 O   0  5  0  0  0  0  0  0  0  0  0  0
   22.4687   21.0207   25.3219 O   0  0  0  0  0  0  0  0  0  0  0  0
   21.5127   20.2044   23.3293 C   0  0  0  0  0  0  0  0  0  0  0  0
   21.9631   20.0860   22.3375 H   0  0  0  0  0  0  0  0  0  0  0  0
   20.9582   21.1503   23.3246 H   0  0  0  0  0  0  0  0  0  0  0  0
   20.5556   19.0246   23.6415 C   0  0  0  0  0  0  0  0  0  0  0  0
   21.1116   18.0780   23.5952 H   0  0  0  0  0  0  0  0  0  0  0  0
   20.2008   19.1250   24.6766 H   0  0  0  0  0  0  0  0  0  0  0  0
   19.3272   18.9563   22.7028 C   0  0  0  0  0  0  0  0  0  0  0  0
   18.7784   19.9069   22.7452 H   0  0  0  0  0  0  0  0  0  0  0  0
   18.6472   18.1866   23.0893 H   0  0  0  0  0  0  0  0  0  0  0  0
   19.6927   18.6288   21.2340 C   0  0  0  0  0  0  0  0  0  0  0  0
   20.3702   19.3994   20.8452 H   0  0  0  0  0  0  0  0  0  0  0  0
   20.2431   17.6791   21.1920 H   0  0  0  0  0  0  0  0  0  0  0  0
   18.4642   18.5562   20.2972 C   0  0  0  0  0  0  0  0  0  0  0  0
   18.8177   18.4579   19.2615 H   0  0  0  0  0  0  0  0  0  0  0  0
   17.9043   19.5004   20.3451 H   0  0  0  0  0  0  0  0  0  0  0  0
   17.5207   17.3749   20.6117 C   0  0  0  0  0  0  0  0  0  0  0  0
   18.0668   16.4227   20.6033 H   0  0  0  0  0  0  0  0  0  0  0  0
   16.7216   17.3124   19.8617 H   0  0  0  0  0  0  0  0  0  0  0  0
   17.0449   17.4910   21.5933 H   0  0  0  0  0  0  0  0  0  0  0  0
  1  2  1  0  0  0  0
  1  3  2  0  0  0  0
  1  4  1  0  0  0  0
  4  5  1  0  0  0  0
  4  6  1  0  0  0  0
  4  7  1  0  0  0  0
  7  8  1  0  0  0  0
  7  9  1  0  0  0  0
  7 10  1  0  0  0  0
 10 11  1  0  0  0  0
 10 12  1  0  0  0  0
 10 13  1  0  0  0  0
 13 14  1  0  0  0  0
 13 15  1  0  0  0  0
 13 16  1  0  0  0  0
 16 17  1  0  0  0  0
 16 18  1  0  0  0  0
 16 19  1  0  0  0  0
 19 20  1  0  0  0  0
 19 21  1  0  0  0  0
 19 22  1  0  0  0  0
M  END
> <VConfSearch Rank>
346

> <Conf_Id>
28

> <Delta U+W>
0.351

> <U+W>
-52.808

> <U>
7.689

> <W>
-60.498

> <W(PB)>
-62.768

> <W(SA)>
2.270

> <Valence>
8.197

> <Coulomb>
-1.561

> <VdW>
1.053

> <VdW6>
-7.737

> <VdW12>
8.791

> <Bond>
0.181

> <Angle>
2.780

> <Pdih>
5.235

> <Idih>
0.001

> <Tether>
0.000

$$$$
VeraChem MOL file


 22 21  0  0  0  0  0  0  0  0999 V2000     
   17.2498   16.4352   23.1801 C   0  0  0  0  0  0  0  0  0  0  0  0
   16.3587   16.8346   23.9033 O   0  5  0  0  0  0  0  0  0  0  0  0
   17.0642   15.7200   22.2155 O   0  0  0  0  0  0  0  0  0  0  0  0
   18.6775   16.8720   23.4885 C   0  0  0  0  0  0  0  0  0  0  0  0
   19.3543   16.0648   23.1834 H   0  0  0  0  0  0  0  0  0  0  0  0
   18.7728   16.9818   24.5754 H   0  0  0  0  0  0  0  0  0  0  0  0
   19.0687   18.1928   22.7808 C   0  0  0  0  0  0  0  0  0  0  0  0
   18.9460   18.0643   21.6973 H   0  0  0  0  0  0  0  0  0  0  0  0
   18.3767   18.9885   23.0896 H   0  0  0  0  0  0  0  0  0  0  0  0
   20.5217   18.6094   23.1069 C   0  0  0  0  0  0  0  0  0  0  0  0
   21.2176   17.8376   22.7505 H   0  0  0  0  0  0  0  0  0  0  0  0
   20.6428   18.6574   24.1977 H   0  0  0  0  0  0  0  0  0  0  0  0
   20.9186   19.9802   22.5094 C   0  0  0  0  0  0  0  0  0  0  0  0
   20.2254   20.7530   22.8688 H   0  0  0  0  0  0  0  0  0  0  0  0
   21.9119   20.2520   22.8920 H   0  0  0  0  0  0  0  0  0  0  0  0
   20.9562   19.9918   20.9645 C   0  0  0  0  0  0  0  0  0  0  0  0
   19.9539   19.7991   20.5599 H   0  0  0  0  0  0  0  0  0  0  0  0
   21.6086   19.1848   20.6035 H   0  0  0  0  0  0  0  0  0  0  0  0
   21.4646   21.3425   20.4216 C   0  0  0  0  0  0  0  0  0  0  0  0
   22.4827   21.5507   20.7756 H   0  0  0  0  0  0  0  0  0  0  0  0
   20.8138   22.1654   20.7453 H   0  0  0  0  0  0  0  0  0  0  0  0
   21.4824   21.3361   19.3240 H   0  0  0  0  0  0  0  0  0  0  0  0
  1  2  1  0  0  0  0
  1  3  2  0  0  0  0
  1  4  1  0  0  0  0
  4  5  1  0  0  0  0
  4  6  1  0  0  0  0
  4  7  1  0  0  0  0
  7  8  1  0  0  0  0
  7  9  1  0  0  0  0
  7 10  1  0  0  0  0
 10 11  1  0  0  0  0
 10 12  1  0  0  0  0
 10 13  1  0  0  0  0
 13 14  1  0  0  0  0
 13 15  1  0  0  0  0
 13 16  1  0  0  0  0
 16 17  1  0  0  0  0
 16 18  1  0  0  0  0
 16 19  1  0  0  0  0
 19 20  1  0  0  0  0
 19 21  1  0  0  0  0
 19 22  1  0  0  0  0
M  END
> <VConfSearch Rank>
347

> <Conf_Id>
50

> <Delta U+W>
-0.486

> <U+W>
-53.646

> <U>
7.026

> <W>
-60.672

> <W(PB)>
-62.964

> <W(SA)>
2.292

> <Valence>
7.637

> <Coulomb>
-1.488

> <VdW>
0.877

> <VdW6>
-7.165

> <VdW12>
8.043

> <Bond>
0.134

> <Angle>
2.513

> <Pdih>
4.990

> <Idih>
0.001

> <Tether>
0.000

$$$$
VeraChem MOL file


 22 21  0  0  0  0  0  0  0  0999 V2000     
   16.1270   18.1413   22.6169 C   0  0  0  0  0  0  0  0  0  0  0  0
   15.8629   17.1605   23.2838 O   0  5  0  0  0  0  0  0  0  0  0  0
   15.5801   18.4071   21.5649 O   0  0  0  0  0  0  0  0  0  0  0  0
   17.2194   19.0795   23.1176 C   0  0  0  0  0  0  0  0  0  0  0  0
   17.1994   19.0709   24.2141 H   0  0  0  0  0  0  0  0  0  0  0  0
   16.9679   20.0975   22.7966 H   0  0  0  0  0  0  0  0  0  0  0  0
   18.6281   18.6907   22.6049 C   0  0  0  0  0  0  0  0  0  0  0  0
   18.8611   17.6663   22.9268 H   0  0  0  0  0  0  0  0  0  0  0  0
   18.6171   18.6869   21.5070 H   0  0  0  0  0  0  0  0  0  0  0  0
   19.7149   19.6606   23.1238 C   0  0  0  0  0  0  0  0  0  0  0  0
   19.6575   19.7075   24.2199 H   0  0  0  0  0  0  0  0  0  0  0  0
   19.5107   20.6762   22.7581 H   0  0  0  0  0  0  0  0  0  0  0  0
   21.1514   19.2462   22.7261 C   0  0  0  0  0  0  0  0  0  0  0  0
   21.8598   19.9124   23.2373 H   0  0  0  0  0  0  0  0  0  0  0  0
   21.3574   18.2321   23.0950 H   0  0  0  0  0  0  0  0  0  0  0  0
   21.4125   19.3099   21.2042 C   0  0  0  0  0  0  0  0  0  0  0  0
   21.1562   20.3090   20.8257 H   0  0  0  0  0  0  0  0  0  0  0  0
   20.7678   18.5929   20.6792 H   0  0  0  0  0  0  0  0  0  0  0  0
   22.8851   18.9980   20.8697 C   0  0  0  0  0  0  0  0  0  0  0  0
   23.1610   17.9924   21.2133 H   0  0  0  0  0  0  0  0  0  0  0  0
   23.5588   19.7209   21.3483 H   0  0  0  0  0  0  0  0  0  0  0  0
   23.0537   19.0440   19.7860 H   0  0  0  0  0  0  0  0  0  0  0  0
  1  2  1  0  0  0  0
  1  3  2  0  0  0  0
  1  4  1  0  0  0  0
  4  5  1  0  0  0  0
  4  6  1  0  0  0  0
  4  7  1  0  0  0  0
  7  8  1  0  0  0  0
  7  9  1  0  0  0  0
  7 10  1  0  0  0  0
 10 11  1  0  0  0  0
 10 12  1  0  0  0  0
 10 13  1  0  0  0  0
 13 14  1  0  0  0  0
 13 15  1  0  0  0  0
 13 16  1  0  0  0  0
 16 17  1  0  0  0  0
 16 18  1  0  0  0  0
 16 19  1  0  0  0  0
 19 20  1  0  0  0  0
 19 21  1  0  0  0  0
 19 22  1  0  0  0  0
M  END
> <VConfSearch Rank>
348

> <Conf_Id>
51

> <Delta U+W>
-0.517

> <U+W>
-53.677

> <U>
7.026

> <W>
-60.703

> <W(PB)>
-63.007

> <W(SA)>
2.304

> <Valence>
7.638

> <Coulomb>
-1.488

> <VdW>
0.877

> <VdW6>
-7.165

> <VdW12>
8.042

> <Bond>
0.134

> <Angle>
2.513

> <Pdih>
4.990

> <Idih>
0.001

> <Tether>
0.000

$$$$
VeraChem MOL file


 22 21  0  0  0  0  0  0  0  0999 V2000     
   16.8710   17.4352   22.9366 C   0  0  0  0  0  0  0  0  0  0  0  0
   16.4232   16.8561   21.9666 O   0  5  0  0  0  0  0  0  0  0  0  0
   17.1225   16.8857   23.9909 O   0  0  0  0  0  0  0  0  0  0  0  0
   17.1121   18.9383   22.8285 C   0  0  0  0  0  0  0  0  0  0  0  0
   17.1763   19.3564   23.8405 H   0  0  0  0  0  0  0  0  0  0  0  0
   16.2254   19.3797   22.3584 H   0  0  0  0  0  0  0  0  0  0  0  0
   18.3745   19.3175   22.0115 C   0  0  0  0  0  0  0  0  0  0  0  0
   18.3086   18.8685   21.0106 H   0  0  0  0  0  0  0  0  0  0  0  0
   18.3929   20.4065   21.8689 H   0  0  0  0  0  0  0  0  0  0  0  0
   19.6840   18.8717   22.6999 C   0  0  0  0  0  0  0  0  0  0  0  0
   19.6806   17.7807   22.8307 H   0  0  0  0  0  0  0  0  0  0  0  0
   19.7388   19.3125   23.7048 H   0  0  0  0  0  0  0  0  0  0  0  0
   20.9281   19.2868   21.8855 C   0  0  0  0  0  0  0  0  0  0  0  0
   20.8727   18.8456   20.8808 H   0  0  0  0  0  0  0  0  0  0  0  0
   20.9354   20.3778   21.7558 H   0  0  0  0  0  0  0  0  0  0  0  0
   22.2363   18.8413   22.5720 C   0  0  0  0  0  0  0  0  0  0  0  0
   22.2334   17.7501   22.7018 H   0  0  0  0  0  0  0  0  0  0  0  0
   22.2961   19.2821   23.5768 H   0  0  0  0  0  0  0  0  0  0  0  0
   23.4764   19.2569   21.7555 C   0  0  0  0  0  0  0  0  0  0  0  0
   23.4582   18.8039   20.7556 H   0  0  0  0  0  0  0  0  0  0  0  0
   24.3969   18.9323   22.2579 H   0  0  0  0  0  0  0  0  0  0  0  0
   23.5213   20.3475   21.6371 H   0  0  0  0  0  0  0  0  0  0  0  0
  1  2  1  0  0  0  0
  1  3  2  0  0  0  0
  1  4  1  0  0  0  0
  4  5  1  0  0  0  0
  4  6  1  0  0  0  0
  4  7  1  0  0  0  0
  7  8  1  0  0  0  0
  7  9  1  0  0  0  0
  7 10  1  0  0  0  0
 10 11  1  0  0  0  0
 10 12  1  0  0  0  0
 10 13  1  0  0  0  0
 13 14  1  0  0  0  0
 13 15  1  0  0  0  0
 13 16  1  0  0  0  0
 16 17  1  0  0  0  0
 16 18  1  0  0  0  0
 16 19  1  0  0  0  0
 19 20  1  0  0  0  0
 19 21  1  0  0  0  0
 19 22  1  0  0  0  0
M  END
> <VConfSearch Rank>
349

> <Conf_Id>
43

> <Delta U+W>
-0.129

> <U+W>
-53.289

> <U>
7.937

> <W>
-61.225

> <W(PB)>
-63.523

> <W(SA)>
2.297

> <Valence>
7.358

> <Coulomb>
-0.022

> <VdW>
0.601

> <VdW6>
-7.363

> <VdW12>
7.964

> <Bond>
0.121

> <Angle>
2.425

> <Pdih>
4.811

> <Idih>
0.000

> <Tether>
0.000

$$$$
VeraChem MOL file


 22 21  0  0  0  0  0  0  0  0999 V2000     
   22.5183   18.2347   24.1849 C   0  0  0  0  0  0  0  0  0  0  0  0
   22.9356   17.1206   23.9369 O   0  5  0  0  0  0  0  0  0  0  0  0
   22.1243   18.5762   25.2826 O   0  0  0  0  0  0  0  0  0  0  0  0
   22.5067   19.2652   23.0592 C   0  0  0  0  0  0  0  0  0  0  0  0
   23.4757   19.2054   22.5498 H   0  0  0  0  0  0  0  0  0  0  0  0
   22.4420   20.2666   23.5018 H   0  0  0  0  0  0  0  0  0  0  0  0
   21.3662   19.0605   22.0285 C   0  0  0  0  0  0  0  0  0  0  0  0
   21.5160   19.7529   21.1890 H   0  0  0  0  0  0  0  0  0  0  0  0
   21.4274   18.0442   21.6150 H   0  0  0  0  0  0  0  0  0  0  0  0
   19.9656   19.2942   22.6378 C   0  0  0  0  0  0  0  0  0  0  0  0
   19.9139   20.3066   23.0612 H   0  0  0  0  0  0  0  0  0  0  0  0
   19.8014   18.5932   23.4678 H   0  0  0  0  0  0  0  0  0  0  0  0
   18.8482   19.1161   21.5874 C   0  0  0  0  0  0  0  0  0  0  0  0
   19.0086   19.8180   20.7576 H   0  0  0  0  0  0  0  0  0  0  0  0
   18.9005   18.1034   21.1644 H   0  0  0  0  0  0  0  0  0  0  0  0
   17.4491   19.3485   22.1953 C   0  0  0  0  0  0  0  0  0  0  0  0
   17.3924   20.3612   22.6180 H   0  0  0  0  0  0  0  0  0  0  0  0
   17.2844   18.6467   23.0247 H   0  0  0  0  0  0  0  0  0  0  0  0
   16.3359   19.1692   21.1437 C   0  0  0  0  0  0  0  0  0  0  0  0
   16.4583   19.8811   20.3168 H   0  0  0  0  0  0  0  0  0  0  0  0
   15.3485   19.3380   21.5929 H   0  0  0  0  0  0  0  0  0  0  0  0
   16.3494   18.1537   20.7267 H   0  0  0  0  0  0  0  0  0  0  0  0
  1  2  1  0  0  0  0
  1  3  2  0  0  0  0
  1  4  1  0  0  0  0
  4  5  1  0  0  0  0
  4  6  1  0  0  0  0
  4  7  1  0  0  0  0
  7  8  1  0  0  0  0
  7  9  1  0  0  0  0
  7 10  1  0  0  0  0
 10 11  1  0  0  0  0
 10 12  1  0  0  0  0
 10 13  1  0  0  0  0
 13 14  1  0  0  0  0
 13 15  1  0  0  0  0
 13 16  1  0  0  0  0
 16 17  1  0  0  0  0
 16 18  1  0  0  0  0
 16 19  1  0  0  0  0
 19 20  1  0  0  0  0
 19 21  1  0  0  0  0
 19 22  1  0  0  0  0
M  END
> <VConfSearch Rank>
350

> <Conf_Id>
44

> <Delta U+W>
-0.155

> <U+W>
-53.314

> <U>
7.937

> <W>
-61.252

> <W(PB)>
-63.556

> <W(SA)>
2.304

> <Valence>
7.358

> <Coulomb>
-0.021

> <VdW>
0.600

> <VdW6>
-7.363

> <VdW12>
7.964

> <Bond>
0.121

> <Angle>
2.425

> <Pdih>
4.811

> <Idih>
0.001

> <Tether>
0.000

$$$$
VeraChem MOL file


 22 21  0  0  0  0  0  0  0  0999 V2000     
   17.1327   20.9606   23.7005 C   0  0  0  0  0  0  0  0  0  0  0  0
   17.1316   22.0916   23.2558 O   0  5  0  0  0  0  0  0  0  0  0  0
   17.0846   20.7050   24.8876 O   0  0  0  0  0  0  0  0  0  0  0  0
   17.1778   19.7991   22.7115 C   0  0  0  0  0  0  0  0  0  0  0  0
   16.4495   20.0145   21.9208 H   0  0  0  0  0  0  0  0  0  0  0  0
   16.8335   18.8910   23.2212 H   0  0  0  0  0  0  0  0  0  0  0  0
   18.5735   19.5610   22.0783 C   0  0  0  0  0  0  0  0  0  0  0  0
   18.4693   18.8184   21.2772 H   0  0  0  0  0  0  0  0  0  0  0  0
   18.9223   20.4902   21.6069 H   0  0  0  0  0  0  0  0  0  0  0  0
   19.6181   19.0719   23.1103 C   0  0  0  0  0  0  0  0  0  0  0  0
   19.2877   18.1209   23.5499 H   0  0  0  0  0  0  0  0  0  0  0  0
   19.6721   19.7926   23.9377 H   0  0  0  0  0  0  0  0  0  0  0  0
   21.0378   18.9042   22.5186 C   0  0  0  0  0  0  0  0  0  0  0  0
   21.3677   19.8554   22.0788 H   0  0  0  0  0  0  0  0  0  0  0  0
   21.7329   18.6848   23.3406 H   0  0  0  0  0  0  0  0  0  0  0  0
   21.1388   17.7792   21.4638 C   0  0  0  0  0  0  0  0  0  0  0  0
   20.5120   18.0175   20.5946 H   0  0  0  0  0  0  0  0  0  0  0  0
   20.7576   16.8394   21.8866 H   0  0  0  0  0  0  0  0  0  0  0  0
   22.5926   17.5757   20.9920 C   0  0  0  0  0  0  0  0  0  0  0  0
   22.9904   18.4935   20.5396 H   0  0  0  0  0  0  0  0  0  0  0  0
   22.6474   16.7765   20.2415 H   0  0  0  0  0  0  0  0  0  0  0  0
   23.2432   17.2971   21.8314 H   0  0  0  0  0  0  0  0  0  0  0  0
  1  2  1  0  0  0  0
  1  3  2  0  0  0  0
  1  4  1  0  0  0  0
  4  5  1  0  0  0  0
  4  6  1  0  0  0  0
  4  7  1  0  0  0  0
  7  8  1  0  0  0  0
  7  9  1  0  0  0  0
  7 10  1  0  0  0  0
 10 11  1  0  0  0  0
 10 12  1  0  0  0  0
 10 13  1  0  0  0  0
 13 14  1  0  0  0  0
 13 15  1  0  0  0  0
 13 16  1  0  0  0  0
 16 17  1  0  0  0  0
 16 18  1  0  0  0  0
 16 19  1  0  0  0  0
 19 20  1  0  0  0  0
 19 21  1  0  0  0  0
 19 22  1  0  0  0  0
M  END
> <VConfSearch Rank>
351

> <Conf_Id>
53

> <Delta U+W>
0.723

> <U+W>
-52.436

> <U>
8.587

> <W>
-61.022

> <W(PB)>
-63.285

> <W(SA)>
2.263

> <Valence>
7.933

> <Coulomb>
-0.124

> <VdW>
0.778

> <VdW6>
-7.981

> <VdW12>
8.759

> <Bond>
0.160

> <Angle>
2.698

> <Pdih>
5.074

> <Idih>
0.001

> <Tether>
0.000

$$$$
VeraChem MOL file


 22 21  0  0  0  0  0  0  0  0999 V2000     
   20.5611   16.9494   19.8177 C   0  0  0  0  0  0  0  0  0  0  0  0
   20.2157   17.4624   18.7716 O   0  5  0  0  0  0  0  0  0  0  0  0
   21.1695   15.8996   19.8833 O   0  0  0  0  0  0  0  0  0  0  0  0
   20.2326   17.6736   21.1183 C   0  0  0  0  0  0  0  0  0  0  0  0
   20.0911   16.9198   21.9020 H   0  0  0  0  0  0  0  0  0  0  0  0
   19.2756   18.1886   20.9781 H   0  0  0  0  0  0  0  0  0  0  0  0
   21.3311   18.6831   21.5371 C   0  0  0  0  0  0  0  0  0  0  0  0
   22.3016   18.1677   21.5360 H   0  0  0  0  0  0  0  0  0  0  0  0
   21.4027   19.4745   20.7783 H   0  0  0  0  0  0  0  0  0  0  0  0
   21.1148   19.3199   22.9329 C   0  0  0  0  0  0  0  0  0  0  0  0
   21.9747   19.9731   23.1350 H   0  0  0  0  0  0  0  0  0  0  0  0
   21.1408   18.5438   23.7101 H   0  0  0  0  0  0  0  0  0  0  0  0
   19.8240   20.1678   23.0629 C   0  0  0  0  0  0  0  0  0  0  0  0
   20.0384   21.0314   23.7072 H   0  0  0  0  0  0  0  0  0  0  0  0
   19.5427   20.5795   22.0839 H   0  0  0  0  0  0  0  0  0  0  0  0
   18.6392   19.3899   23.6808 C   0  0  0  0  0  0  0  0  0  0  0  0
   18.9161   19.0338   24.6827 H   0  0  0  0  0  0  0  0  0  0  0  0
   18.4085   18.4993   23.0841 H   0  0  0  0  0  0  0  0  0  0  0  0
   17.3777   20.2703   23.7846 C   0  0  0  0  0  0  0  0  0  0  0  0
   17.5643   21.1523   24.4112 H   0  0  0  0  0  0  0  0  0  0  0  0
   16.5483   19.7066   24.2312 H   0  0  0  0  0  0  0  0  0  0  0  0
   17.0576   20.6155   22.7928 H   0  0  0  0  0  0  0  0  0  0  0  0
  1  2  1  0  0  0  0
  1  3  2  0  0  0  0
  1  4  1  0  0  0  0
  4  5  1  0  0  0  0
  4  6  1  0  0  0  0
  4  7  1  0  0  0  0
  7  8  1  0  0  0  0
  7  9  1  0  0  0  0
  7 10  1  0  0  0  0
 10 11  1  0  0  0  0
 10 12  1  0  0  0  0
 10 13  1  0  0  0  0
 13 14  1  0  0  0  0
 13 15  1  0  0  0  0
 13 16  1  0  0  0  0
 16 17  1  0  0  0  0
 16 18  1  0  0  0  0
 16 19  1  0  0  0  0
 19 20  1  0  0  0  0
 19 21  1  0  0  0  0
 19 22  1  0  0  0  0
M  END
> <VConfSearch Rank>
352

> <Conf_Id>
5

> <Delta U+W>
2.167

> <U+W>
-50.993

> <U>
10.045

> <W>
-61.037

> <W(PB)>
-63.303

> <W(SA)>
2.266

> <Valence>
10.100

> <Coulomb>
-0.883

> <VdW>
0.828

> <VdW6>
-8.177

> <VdW12>
9.005

> <Bond>
0.182

> <Angle>
2.988

> <Pdih>
6.930

> <Idih>
0.001

> <Tether>
0.000

$$$$
VeraChem MOL file


 22 21  0  0  0  0  0  0  0  0999 V2000     
   22.7144   17.1774   21.9844 C   0  0  0  0  0  0  0  0  0  0  0  0
   22.5319   16.0326   22.3486 O   0  5  0  0  0  0  0  0  0  0  0  0
   23.7942   17.6057   21.6277 O   0  0  0  0  0  0  0  0  0  0  0  0
   21.5286   18.1354   21.9974 C   0  0  0  0  0  0  0  0  0  0  0  0
   20.6310   17.5546   21.7572 H   0  0  0  0  0  0  0  0  0  0  0  0
   21.6734   18.8682   21.1947 H   0  0  0  0  0  0  0  0  0  0  0  0
   21.3550   18.8572   23.3576 C   0  0  0  0  0  0  0  0  0  0  0  0
   21.1316   18.1137   24.1351 H   0  0  0  0  0  0  0  0  0  0  0  0
   22.3135   19.3159   23.6374 H   0  0  0  0  0  0  0  0  0  0  0  0
   20.2640   19.9574   23.3622 C   0  0  0  0  0  0  0  0  0  0  0  0
   20.5305   20.7562   22.6567 H   0  0  0  0  0  0  0  0  0  0  0  0
   20.2695   20.4240   24.3568 H   0  0  0  0  0  0  0  0  0  0  0  0
   18.8293   19.4453   23.0776 C   0  0  0  0  0  0  0  0  0  0  0  0
   18.7316   18.3988   23.3975 H   0  0  0  0  0  0  0  0  0  0  0  0
   18.1257   20.0203   23.6951 H   0  0  0  0  0  0  0  0  0  0  0  0
   18.4059   19.5982   21.5984 C   0  0  0  0  0  0  0  0  0  0  0  0
   19.1004   19.0625   20.9403 H   0  0  0  0  0  0  0  0  0  0  0  0
   18.4538   20.6574   21.3102 H   0  0  0  0  0  0  0  0  0  0  0  0
   16.9763   19.0711   21.3622 C   0  0  0  0  0  0  0  0  0  0  0  0
   16.9056   18.0042   21.6115 H   0  0  0  0  0  0  0  0  0  0  0  0
   16.6880   19.1931   20.3100 H   0  0  0  0  0  0  0  0  0  0  0  0
   16.2494   19.6163   21.9783 H   0  0  0  0  0  0  0  0  0  0  0  0
  1  2  1  0  0  0  0
  1  3  2  0  0  0  0
  1  4  1  0  0  0  0
  4  5  1  0  0  0  0
  4  6  1  0  0  0  0
  4  7  1  0  0  0  0
  7  8  1  0  0  0  0
  7  9  1  0  0  0  0
  7 10  1  0  0  0  0
 10 11  1  0  0  0  0
 10 12  1  0  0  0  0
 10 13  1  0  0  0  0
 13 14  1  0  0  0  0
 13 15  1  0  0  0  0
 13 16  1  0  0  0  0
 16 17  1  0  0  0  0
 16 18  1  0  0  0  0
 16 19  1  0  0  0  0
 19 20  1  0  0  0  0
 19 21  1  0  0  0  0
 19 22  1  0  0  0  0
M  END
> <VConfSearch Rank>
353

> <Conf_Id>
6

> <Delta U+W>
2.118

> <U+W>
-51.042

> <U>
10.045

> <W>
-61.086

> <W(PB)>
-63.356

> <W(SA)>
2.270

> <Valence>
10.100

> <Coulomb>
-0.883

> <VdW>
0.828

> <VdW6>
-8.177

> <VdW12>
9.004

> <Bond>
0.182

> <Angle>
2.988

> <Pdih>
6.930

> <Idih>
0.001

> <Tether>
0.000

$$$$
VeraChem MOL file


 22 21  0  0  0  0  0  0  0  0999 V2000     
   18.2060   17.3928   24.2686 C   0  0  0  0  0  0  0  0  0  0  0  0
   18.0521   16.3335   23.6926 O   0  5  0  0  0  0  0  0  0  0  0  0
   17.3061   18.1857   24.4652 O   0  0  0  0  0  0  0  0  0  0  0  0
   19.5864   17.7148   24.8381 C   0  0  0  0  0  0  0  0  0  0  0  0
   19.7940   16.9487   25.5941 H   0  0  0  0  0  0  0  0  0  0  0  0
   19.5387   18.6737   25.3681 H   0  0  0  0  0  0  0  0  0  0  0  0
   20.7452   17.7294   23.8017 C   0  0  0  0  0  0  0  0  0  0  0  0
   21.6896   17.6007   24.3476 H   0  0  0  0  0  0  0  0  0  0  0  0
   20.6616   16.8606   23.1340 H   0  0  0  0  0  0  0  0  0  0  0  0
   20.8555   19.0307   22.9690 C   0  0  0  0  0  0  0  0  0  0  0  0
   21.7894   18.9890   22.3920 H   0  0  0  0  0  0  0  0  0  0  0  0
   20.9471   19.8938   23.6424 H   0  0  0  0  0  0  0  0  0  0  0  0
   19.6787   19.2560   21.9929 C   0  0  0  0  0  0  0  0  0  0  0  0
   19.5219   18.3518   21.3889 H   0  0  0  0  0  0  0  0  0  0  0  0
   18.7539   19.4300   22.5573 H   0  0  0  0  0  0  0  0  0  0  0  0
   19.9317   20.4616   21.0631 C   0  0  0  0  0  0  0  0  0  0  0  0
   20.8510   20.2976   20.4841 H   0  0  0  0  0  0  0  0  0  0  0  0
   20.0905   21.3665   21.6659 H   0  0  0  0  0  0  0  0  0  0  0  0
   18.7525   20.6903   20.0964 C   0  0  0  0  0  0  0  0  0  0  0  0
   18.5912   19.8109   19.4591 H   0  0  0  0  0  0  0  0  0  0  0  0
   18.9481   21.5510   19.4438 H   0  0  0  0  0  0  0  0  0  0  0  0
   17.8245   20.8874   20.6491 H   0  0  0  0  0  0  0  0  0  0  0  0
  1  2  1  0  0  0  0
  1  3  2  0  0  0  0
  1  4  1  0  0  0  0
  4  5  1  0  0  0  0
  4  6  1  0  0  0  0
  4  7  1  0  0  0  0
  7  8  1  0  0  0  0
  7  9  1  0  0  0  0
  7 10  1  0  0  0  0
 10 11  1  0  0  0  0
 10 12  1  0  0  0  0
 10 13  1  0  0  0  0
 13 14  1  0  0  0  0
 13 15  1  0  0  0  0
 13 16  1  0  0  0  0
 16 17  1  0  0  0  0
 16 18  1  0  0  0  0
 16 19  1  0  0  0  0
 19 20  1  0  0  0  0
 19 21  1  0  0  0  0
 19 22  1  0  0  0  0
M  END
> <VConfSearch Rank>
354

> <Conf_Id>
8

> <Delta U+W>
1.886

> <U+W>
-51.274

> <U>
11.237

> <W>
-62.510

> <W(PB)>
-64.777

> <W(SA)>
2.267

> <Valence>
9.029

> <Coulomb>
1.667

> <VdW>
0.540

> <VdW6>
-8.825

> <VdW12>
9.365

> <Bond>
0.186

> <Angle>
3.195

> <Pdih>
5.642

> <Idih>
0.007

> <Tether>
0.000

$$$$
VeraChem MOL file


 22 21  0  0  0  0  0  0  0  0999 V2000     
   22.0892   17.0719   22.9464 C   0  0  0  0  0  0  0  0  0  0  0  0
   21.6871   16.3371   22.0660 O   0  5  0  0  0  0  0  0  0  0  0  0
   22.4614   16.6767   24.0339 O   0  0  0  0  0  0  0  0  0  0  0  0
   22.1599   18.5698   22.6629 C   0  0  0  0  0  0  0  0  0  0  0  0
   22.0652   18.7280   21.5828 H   0  0  0  0  0  0  0  0  0  0  0  0
   23.1668   18.9056   22.9371 H   0  0  0  0  0  0  0  0  0  0  0  0
   21.1099   19.4135   23.4369 C   0  0  0  0  0  0  0  0  0  0  0  0
   21.2873   19.2912   24.5143 H   0  0  0  0  0  0  0  0  0  0  0  0
   21.2705   20.4777   23.2181 H   0  0  0  0  0  0  0  0  0  0  0  0
   19.6364   19.0471   23.1317 C   0  0  0  0  0  0  0  0  0  0  0  0
   18.9959   19.6362   23.8000 H   0  0  0  0  0  0  0  0  0  0  0  0
   19.4570   17.9923   23.3811 H   0  0  0  0  0  0  0  0  0  0  0  0
   19.2278   19.3095   21.6614 C   0  0  0  0  0  0  0  0  0  0  0  0
   19.4240   20.3587   21.4021 H   0  0  0  0  0  0  0  0  0  0  0  0
   19.8536   18.6995   20.9972 H   0  0  0  0  0  0  0  0  0  0  0  0
   17.7481   18.9706   21.3653 C   0  0  0  0  0  0  0  0  0  0  0  0
   17.5454   17.9258   21.6385 H   0  0  0  0  0  0  0  0  0  0  0  0
   17.5809   19.0456   20.2820 H   0  0  0  0  0  0  0  0  0  0  0  0
   16.7483   19.9014   22.0856 C   0  0  0  0  0  0  0  0  0  0  0  0
   16.7919   19.7728   23.1741 H   0  0  0  0  0  0  0  0  0  0  0  0
   15.7213   19.6806   21.7669 H   0  0  0  0  0  0  0  0  0  0  0  0
   16.9547   20.9544   21.8540 H   0  0  0  0  0  0  0  0  0  0  0  0
  1  2  1  0  0  0  0
  1  3  2  0  0  0  0
  1  4  1  0  0  0  0
  4  5  1  0  0  0  0
  4  6  1  0  0  0  0
  4  7  1  0  0  0  0
  7  8  1  0  0  0  0
  7  9  1  0  0  0  0
  7 10  1  0  0  0  0
 10 11  1  0  0  0  0
 10 12  1  0  0  0  0
 10 13  1  0  0  0  0
 13 14  1  0  0  0  0
 13 15  1  0  0  0  0
 13 16  1  0  0  0  0
 16 17  1  0  0  0  0
 16 18  1  0  0  0  0
 16 19  1  0  0  0  0
 19 20  1  0  0  0  0
 19 21  1  0  0  0  0
 19 22  1  0  0  0  0
M  END
> <VConfSearch Rank>
355

> <Conf_Id>
93

> <Delta U+W>
1.836

> <U+W>
-51.323

> <U>
10.427

> <W>
-61.751

> <W(PB)>
-63.980

> <W(SA)>
2.230

> <Valence>
8.446

> <Coulomb>
1.306

> <VdW>
0.676

> <VdW6>
-8.928

> <VdW12>
9.604

> <Bond>
0.209

> <Angle>
3.066

> <Pdih>
5.170

> <Idih>
0.001

> <Tether>
0.000

$$$$
VeraChem MOL file


 22 21  0  0  0  0  0  0  0  0999 V2000     
   19.9001   22.0654   23.3572 C   0  0  0  0  0  0  0  0  0  0  0  0
   18.9556   22.7751   23.6429 O   0  5  0  0  0  0  0  0  0  0  0  0
   20.6562   22.2927   22.4334 O   0  0  0  0  0  0  0  0  0  0  0  0
   20.1667   20.8392   24.2258 C   0  0  0  0  0  0  0  0  0  0  0  0
   20.1613   21.1728   25.2700 H   0  0  0  0  0  0  0  0  0  0  0  0
   21.1811   20.4782   24.0224 H   0  0  0  0  0  0  0  0  0  0  0  0
   19.1297   19.6963   24.0476 C   0  0  0  0  0  0  0  0  0  0  0  0
   19.3651   18.8836   24.7479 H   0  0  0  0  0  0  0  0  0  0  0  0
   18.1391   20.0736   24.3367 H   0  0  0  0  0  0  0  0  0  0  0  0
   19.0427   19.1225   22.6116 C   0  0  0  0  0  0  0  0  0  0  0  0
   18.7725   19.9221   21.9084 H   0  0  0  0  0  0  0  0  0  0  0  0
   18.2197   18.3972   22.5865 H   0  0  0  0  0  0  0  0  0  0  0  0
   20.3492   18.4373   22.1415 C   0  0  0  0  0  0  0  0  0  0  0  0
   21.1647   19.1721   22.1438 H   0  0  0  0  0  0  0  0  0  0  0  0
   20.6335   17.6501   22.8528 H   0  0  0  0  0  0  0  0  0  0  0  0
   20.2513   17.8392   20.7186 C   0  0  0  0  0  0  0  0  0  0  0  0
   21.2512   17.5053   20.4087 H   0  0  0  0  0  0  0  0  0  0  0  0
   19.9517   18.6215   20.0075 H   0  0  0  0  0  0  0  0  0  0  0  0
   19.2782   16.6442   20.6197 C   0  0  0  0  0  0  0  0  0  0  0  0
   18.2417   16.9536   20.8022 H   0  0  0  0  0  0  0  0  0  0  0  0
   19.5386   15.8642   21.3469 H   0  0  0  0  0  0  0  0  0  0  0  0
   19.3192   16.1985   19.6174 H   0  0  0  0  0  0  0  0  0  0  0  0
  1  2  1  0  0  0  0
  1  3  2  0  0  0  0
  1  4  1  0  0  0  0
  4  5  1  0  0  0  0
  4  6  1  0  0  0  0
  4  7  1  0  0  0  0
  7  8  1  0  0  0  0
  7  9  1  0  0  0  0
  7 10  1  0  0  0  0
 10 11  1  0  0  0  0
 10 12  1  0  0  0  0
 10 13  1  0  0  0  0
 13 14  1  0  0  0  0
 13 15  1  0  0  0  0
 13 16  1  0  0  0  0
 16 17  1  0  0  0  0
 16 18  1  0  0  0  0
 16 19  1  0  0  0  0
 19 20  1  0  0  0  0
 19 21  1  0  0  0  0
 19 22  1  0  0  0  0
M  END
> <VConfSearch Rank>
356

> <Conf_Id>
70

> <Delta U+W>
1.803

> <U+W>
-51.356

> <U>
10.428

> <W>
-61.784

> <W(PB)>
-64.014

> <W(SA)>
2.230

> <Valence>
8.445

> <Coulomb>
1.306

> <VdW>
0.676

> <VdW6>
-8.929

> <VdW12>
9.605

> <Bond>
0.209

> <Angle>
3.066

> <Pdih>
5.170

> <Idih>
0.001

> <Tether>
0.000

$$$$
VeraChem MOL file


 22 21  0  0  0  0  0  0  0  0999 V2000     
   18.3033   19.9329   25.2718 C   0  0  0  0  0  0  0  0  0  0  0  0
   18.7129   19.1066   26.0632 O   0  5  0  0  0  0  0  0  0  0  0  0
   17.1236   20.1508   25.0774 O   0  0  0  0  0  0  0  0  0  0  0  0
   19.3283   20.7554   24.4960 C   0  0  0  0  0  0  0  0  0  0  0  0
   20.0942   21.0827   25.2090 H   0  0  0  0  0  0  0  0  0  0  0  0
   18.8378   21.6611   24.1194 H   0  0  0  0  0  0  0  0  0  0  0  0
   20.0013   19.9854   23.3302 C   0  0  0  0  0  0  0  0  0  0  0  0
   20.8099   20.6019   22.9152 H   0  0  0  0  0  0  0  0  0  0  0  0
   20.4680   19.0747   23.7282 H   0  0  0  0  0  0  0  0  0  0  0  0
   19.0028   19.6266   22.2037 C   0  0  0  0  0  0  0  0  0  0  0  0
   18.4848   20.5402   21.8816 H   0  0  0  0  0  0  0  0  0  0  0  0
   18.2274   18.9525   22.5930 H   0  0  0  0  0  0  0  0  0  0  0  0
   19.6739   18.9809   20.9683 C   0  0  0  0  0  0  0  0  0  0  0  0
   18.9184   18.8745   20.1779 H   0  0  0  0  0  0  0  0  0  0  0  0
   20.4445   19.6564   20.5724 H   0  0  0  0  0  0  0  0  0  0  0  0
   20.2945   17.5956   21.2586 C   0  0  0  0  0  0  0  0  0  0  0  0
   19.5367   16.9363   21.7038 H   0  0  0  0  0  0  0  0  0  0  0  0
   21.1066   17.6909   21.9911 H   0  0  0  0  0  0  0  0  0  0  0  0
   20.8499   16.9448   19.9758 C   0  0  0  0  0  0  0  0  0  0  0  0
   20.0548   16.7984   19.2330 H   0  0  0  0  0  0  0  0  0  0  0  0
   21.2895   15.9640   20.1989 H   0  0  0  0  0  0  0  0  0  0  0  0
   21.6302   17.5713   19.5241 H   0  0  0  0  0  0  0  0  0  0  0  0
  1  2  1  0  0  0  0
  1  3  2  0  0  0  0
  1  4  1  0  0  0  0
  4  5  1  0  0  0  0
  4  6  1  0  0  0  0
  4  7  1  0  0  0  0
  7  8  1  0  0  0  0
  7  9  1  0  0  0  0
  7 10  1  0  0  0  0
 10 11  1  0  0  0  0
 10 12  1  0  0  0  0
 10 13  1  0  0  0  0
 13 14  1  0  0  0  0
 13 15  1  0  0  0  0
 13 16  1  0  0  0  0
 16 17  1  0  0  0  0
 16 18  1  0  0  0  0
 16 19  1  0  0  0  0
 19 20  1  0  0  0  0
 19 21  1  0  0  0  0
 19 22  1  0  0  0  0
M  END
> <VConfSearch Rank>
357

> <Conf_Id>
85

> <Delta U+W>
0.707

> <U+W>
-52.452

> <U>
8.925

> <W>
-61.378

> <W(PB)>
-63.661

> <W(SA)>
2.283

> <Valence>
7.881

> <Coulomb>
0.349

> <VdW>
0.695

> <VdW6>
-8.049

> <VdW12>
8.743

> <Bond>
0.156

> <Angle>
2.660

> <Pdih>
5.064

> <Idih>
0.001

> <Tether>
0.000

$$$$
VeraChem MOL file


 22 21  0  0  0  0  0  0  0  0999 V2000     
   23.0141   19.9715   22.2918 C   0  0  0  0  0  0  0  0  0  0  0  0
   23.7484   19.2229   21.6775 O   0  5  0  0  0  0  0  0  0  0  0  0
   22.9949   21.1760   22.1305 O   0  0  0  0  0  0  0  0  0  0  0  0
   22.0810   19.3711   23.3397 C   0  0  0  0  0  0  0  0  0  0  0  0
   22.1616   19.9894   24.2415 H   0  0  0  0  0  0  0  0  0  0  0  0
   22.4481   18.3725   23.6056 H   0  0  0  0  0  0  0  0  0  0  0  0
   20.5966   19.2953   22.8963 C   0  0  0  0  0  0  0  0  0  0  0  0
   19.9916   19.0020   23.7634 H   0  0  0  0  0  0  0  0  0  0  0  0
   20.2561   20.2935   22.5882 H   0  0  0  0  0  0  0  0  0  0  0  0
   20.3692   18.2841   21.7488 C   0  0  0  0  0  0  0  0  0  0  0  0
   20.6317   17.2749   22.0944 H   0  0  0  0  0  0  0  0  0  0  0  0
   21.0571   18.5139   20.9237 H   0  0  0  0  0  0  0  0  0  0  0  0
   18.9263   18.2762   21.1843 C   0  0  0  0  0  0  0  0  0  0  0  0
   18.6863   19.2569   20.7511 H   0  0  0  0  0  0  0  0  0  0  0  0
   18.9042   17.5668   20.3458 H   0  0  0  0  0  0  0  0  0  0  0  0
   17.8342   17.8559   22.1995 C   0  0  0  0  0  0  0  0  0  0  0  0
   18.2596   17.1905   22.9633 H   0  0  0  0  0  0  0  0  0  0  0  0
   17.0722   17.2664   21.6713 H   0  0  0  0  0  0  0  0  0  0  0  0
   17.1291   19.0574   22.8676 C   0  0  0  0  0  0  0  0  0  0  0  0
   17.8323   19.6839   23.4278 H   0  0  0  0  0  0  0  0  0  0  0  0
   16.3588   18.7095   23.5679 H   0  0  0  0  0  0  0  0  0  0  0  0
   16.6383   19.6889   22.1157 H   0  0  0  0  0  0  0  0  0  0  0  0
  1  2  1  0  0  0  0
  1  3  2  0  0  0  0
  1  4  1  0  0  0  0
  4  5  1  0  0  0  0
  4  6  1  0  0  0  0
  4  7  1  0  0  0  0
  7  8  1  0  0  0  0
  7  9  1  0  0  0  0
  7 10  1  0  0  0  0
 10 11  1  0  0  0  0
 10 12  1  0  0  0  0
 10 13  1  0  0  0  0
 13 14  1  0  0  0  0
 13 15  1  0  0  0  0
 13 16  1  0  0  0  0
 16 17  1  0  0  0  0
 16 18  1  0  0  0  0
 16 19  1  0  0  0  0
 19 20  1  0  0  0  0
 19 21  1  0  0  0  0
 19 22  1  0  0  0  0
M  END
> <VConfSearch Rank>
358

> <Conf_Id>
82

> <Delta U+W>
3.438

> <U+W>
-49.721

> <U>
11.773

> <W>
-61.495

> <W(PB)>
-63.749

> <W(SA)>
2.254

> <Valence>
10.419

> <Coulomb>
0.565

> <VdW>
0.789

> <VdW6>
-8.847

> <VdW12>
9.636

> <Bond>
0.200

> <Angle>
3.187

> <Pdih>
7.032

> <Idih>
0.001

> <Tether>
0.000

$$$$
VeraChem MOL file


 22 21  0  0  0  0  0  0  0  0999 V2000     
   19.2331   15.6457   22.1760 C   0  0  0  0  0  0  0  0  0  0  0  0
   18.2381   15.4255   22.8381 O   0  5  0  0  0  0  0  0  0  0  0  0
   19.4078   15.2031   21.0577 O   0  0  0  0  0  0  0  0  0  0  0  0
   20.3321   16.5062   22.7935 C   0  0  0  0  0  0  0  0  0  0  0  0
   21.2657   16.3295   22.2456 H   0  0  0  0  0  0  0  0  0  0  0  0
   20.4920   16.1470   23.8169 H   0  0  0  0  0  0  0  0  0  0  0  0
   20.0074   18.0225   22.8229 C   0  0  0  0  0  0  0  0  0  0  0  0
   19.0471   18.1805   23.3330 H   0  0  0  0  0  0  0  0  0  0  0  0
   20.7763   18.5289   23.4197 H   0  0  0  0  0  0  0  0  0  0  0  0
   19.9621   18.6490   21.4099 C   0  0  0  0  0  0  0  0  0  0  0  0
   19.2727   18.0700   20.7804 H   0  0  0  0  0  0  0  0  0  0  0  0
   20.9515   18.5624   20.9406 H   0  0  0  0  0  0  0  0  0  0  0  0
   19.5078   20.1301   21.3848 C   0  0  0  0  0  0  0  0  0  0  0  0
   19.4609   20.4427   20.3327 H   0  0  0  0  0  0  0  0  0  0  0  0
   18.4813   20.2154   21.7669 H   0  0  0  0  0  0  0  0  0  0  0  0
   20.4436   21.1091   22.1368 C   0  0  0  0  0  0  0  0  0  0  0  0
   20.4783   22.0572   21.5825 H   0  0  0  0  0  0  0  0  0  0  0  0
   21.4722   20.7228   22.1452 H   0  0  0  0  0  0  0  0  0  0  0  0
   19.9743   21.4154   23.5766 C   0  0  0  0  0  0  0  0  0  0  0  0
   18.9752   21.8703   23.5725 H   0  0  0  0  0  0  0  0  0  0  0  0
   20.6616   22.1198   24.0626 H   0  0  0  0  0  0  0  0  0  0  0  0
   19.9309   20.5107   24.1933 H   0  0  0  0  0  0  0  0  0  0  0  0
  1  2  1  0  0  0  0
  1  3  2  0  0  0  0
  1  4  1  0  0  0  0
  4  5  1  0  0  0  0
  4  6  1  0  0  0  0
  4  7  1  0  0  0  0
  7  8  1  0  0  0  0
  7  9  1  0  0  0  0
  7 10  1  0  0  0  0
 10 11  1  0  0  0  0
 10 12  1  0  0  0  0
 10 13  1  0  0  0  0
 13 14  1  0  0  0  0
 13 15  1  0  0  0  0
 13 16  1  0  0  0  0
 16 17  1  0  0  0  0
 16 18  1  0  0  0  0
 16 19  1  0  0  0  0
 19 20  1  0  0  0  0
 19 21  1  0  0  0  0
 19 22  1  0  0  0  0
M  END
> <VConfSearch Rank>
359

> <Conf_Id>
94

> <Delta U+W>
3.471

> <U+W>
-49.688

> <U>
11.773

> <W>
-61.461

> <W(PB)>
-63.710

> <W(SA)>
2.248

> <Valence>
10.419

> <Coulomb>
0.566

> <VdW>
0.789

> <VdW6>
-8.847

> <VdW12>
9.636

> <Bond>
0.200

> <Angle>
3.187

> <Pdih>
7.032

> <Idih>
0.001

> <Tether>
0.000

$$$$
VeraChem MOL file


 22 21  0  0  0  0  0  0  0  0999 V2000     
   18.0609   16.4244   21.4197 C   0  0  0  0  0  0  0  0  0  0  0  0
   18.3669   15.2590   21.2618 O   0  5  0  0  0  0  0  0  0  0  0  0
   17.1704   16.9755   20.8034 O   0  0  0  0  0  0  0  0  0  0  0  0
   18.8508   17.2450   22.4329 C   0  0  0  0  0  0  0  0  0  0  0  0
   19.1605   16.5772   23.2456 H   0  0  0  0  0  0  0  0  0  0  0  0
   18.1704   17.9884   22.8634 H   0  0  0  0  0  0  0  0  0  0  0  0
   20.0896   17.9382   21.8088 C   0  0  0  0  0  0  0  0  0  0  0  0
   20.7088   17.1767   21.3151 H   0  0  0  0  0  0  0  0  0  0  0  0
   19.7656   18.6263   21.0168 H   0  0  0  0  0  0  0  0  0  0  0  0
   20.9635   18.6907   22.8434 C   0  0  0  0  0  0  0  0  0  0  0  0
   21.8419   19.1053   22.3316 H   0  0  0  0  0  0  0  0  0  0  0  0
   21.3572   17.9658   23.5688 H   0  0  0  0  0  0  0  0  0  0  0  0
   20.2408   19.8237   23.6188 C   0  0  0  0  0  0  0  0  0  0  0  0
   19.4635   19.3872   24.2595 H   0  0  0  0  0  0  0  0  0  0  0  0
   20.9601   20.2929   24.3036 H   0  0  0  0  0  0  0  0  0  0  0  0
   19.6032   20.9241   22.7353 C   0  0  0  0  0  0  0  0  0  0  0  0
   19.1018   21.6511   23.3887 H   0  0  0  0  0  0  0  0  0  0  0  0
   18.8170   20.4921   22.1018 H   0  0  0  0  0  0  0  0  0  0  0  0
   20.6294   21.6711   21.8563 C   0  0  0  0  0  0  0  0  0  0  0  0
   21.4344   22.0976   22.4687 H   0  0  0  0  0  0  0  0  0  0  0  0
   20.1447   22.4929   21.3138 H   0  0  0  0  0  0  0  0  0  0  0  0
   21.0798   21.0013   21.1130 H   0  0  0  0  0  0  0  0  0  0  0  0
  1  2  1  0  0  0  0
  1  3  2  0  0  0  0
  1  4  1  0  0  0  0
  4  5  1  0  0  0  0
  4  6  1  0  0  0  0
  4  7  1  0  0  0  0
  7  8  1  0  0  0  0
  7  9  1  0  0  0  0
  7 10  1  0  0  0  0
 10 11  1  0  0  0  0
 10 12  1  0  0  0  0
 10 13  1  0  0  0  0
 13 14  1  0  0  0  0
 13 15  1  0  0  0  0
 13 16  1  0  0  0  0
 16 17  1  0  0  0  0
 16 18  1  0  0  0  0
 16 19  1  0  0  0  0
 19 20  1  0  0  0  0
 19 21  1  0  0  0  0
 19 22  1  0  0  0  0
M  END
> <VConfSearch Rank>
360

> <Conf_Id>
56

> <Delta U+W>
0.853

> <U+W>
-52.307

> <U>
8.874

> <W>
-61.181

> <W(PB)>
-63.413

> <W(SA)>
2.232

> <Valence>
8.479

> <Coulomb>
-0.357

> <VdW>
0.753

> <VdW6>
-9.081

> <VdW12>
9.833

> <Bond>
0.221

> <Angle>
3.208

> <Pdih>
5.050

> <Idih>
0.000

> <Tether>
0.000

$$$$
VeraChem MOL file


 22 21  0  0  0  0  0  0  0  0999 V2000     
   20.1739   18.7084   26.1883 C   0  0  0  0  0  0  0  0  0  0  0  0
   21.0876   17.9086   26.1266 O   0  5  0  0  0  0  0  0  0  0  0  0
   19.7224   19.1201   27.2384 O   0  0  0  0  0  0  0  0  0  0  0  0
   19.5420   19.2397   24.9007 C   0  0  0  0  0  0  0  0  0  0  0  0
   19.6314   20.3322   24.9192 H   0  0  0  0  0  0  0  0  0  0  0  0
   18.4719   19.0045   24.9404 H   0  0  0  0  0  0  0  0  0  0  0  0
   20.1522   18.6858   23.5857 C   0  0  0  0  0  0  0  0  0  0  0  0
   21.2256   18.9194   23.5552 H   0  0  0  0  0  0  0  0  0  0  0  0
   20.0649   17.5905   23.5763 H   0  0  0  0  0  0  0  0  0  0  0  0
   19.4572   19.2731   22.3381 C   0  0  0  0  0  0  0  0  0  0  0  0
   19.5458   20.3682   22.3497 H   0  0  0  0  0  0  0  0  0  0  0  0
   18.3843   19.0385   22.3708 H   0  0  0  0  0  0  0  0  0  0  0  0
   20.0656   18.7208   21.0312 C   0  0  0  0  0  0  0  0  0  0  0  0
   21.1385   18.9551   20.9980 H   0  0  0  0  0  0  0  0  0  0  0  0
   19.9771   17.6257   21.0191 H   0  0  0  0  0  0  0  0  0  0  0  0
   19.3715   19.3073   19.7840 C   0  0  0  0  0  0  0  0  0  0  0  0
   19.4597   20.4026   19.7915 H   0  0  0  0  0  0  0  0  0  0  0  0
   18.2983   19.0732   19.8127 H   0  0  0  0  0  0  0  0  0  0  0  0
   19.9819   18.7532   18.4810 C   0  0  0  0  0  0  0  0  0  0  0  0
   21.0493   19.0006   18.4111 H   0  0  0  0  0  0  0  0  0  0  0  0
   19.4769   19.1805   17.6050 H   0  0  0  0  0  0  0  0  0  0  0  0
   19.8791   17.6612   18.4325 H   0  0  0  0  0  0  0  0  0  0  0  0
  1  2  1  0  0  0  0
  1  3  2  0  0  0  0
  1  4  1  0  0  0  0
  4  5  1  0  0  0  0
  4  6  1  0  0  0  0
  4  7  1  0  0  0  0
  7  8  1  0  0  0  0
  7  9  1  0  0  0  0
  7 10  1  0  0  0  0
 10 11  1  0  0  0  0
 10 12  1  0  0  0  0
 10 13  1  0  0  0  0
 13 14  1  0  0  0  0
 13 15  1  0  0  0  0
 13 16  1  0  0  0  0
 16 17  1  0  0  0  0
 16 18  1  0  0  0  0
 16 19  1  0  0  0  0
 19 20  1  0  0  0  0
 19 21  1  0  0  0  0
 19 22  1  0  0  0  0
M  END
> <VConfSearch Rank>
361

> <Conf_Id>
0

> <Delta U+W>
0.000

> <U+W>
-53.159

> <U>
6.763

> <W>
-59.922

> <W(PB)>
-62.256

> <W(SA)>
2.334

> <Valence>
7.600

> <Coulomb>
-2.139

> <VdW>
1.302

> <VdW6>
-6.786

> <VdW12>
8.088

> <Bond>
0.134

> <Angle>
2.720

> <Pdih>
4.746

> <Idih>
0.000

> <Tether>
0.000

$$$$
VeraChem MOL file


 22 21  0  0  0  0  0  0  0  0999 V2000     
   18.5095   22.7766   21.8426 C   0  0  0  0  0  0  0  0  0  0  0  0
   19.2583   23.6020   22.3268 O   0  5  0  0  0  0  0  0  0  0  0  0
   17.3003   22.8941   21.8232 O   0  0  0  0  0  0  0  0  0  0  0  0
   19.1197   21.5130   21.2465 C   0  0  0  0  0  0  0  0  0  0  0  0
   20.0993   21.7726   20.8276 H   0  0  0  0  0  0  0  0  0  0  0  0
   18.4857   21.1894   20.4122 H   0  0  0  0  0  0  0  0  0  0  0  0
   19.2666   20.3700   22.2809 C   0  0  0  0  0  0  0  0  0  0  0  0
   19.8930   20.7143   23.1156 H   0  0  0  0  0  0  0  0  0  0  0  0
   18.2794   20.1310   22.7003 H   0  0  0  0  0  0  0  0  0  0  0  0
   19.8862   19.1028   21.6532 C   0  0  0  0  0  0  0  0  0  0  0  0
   20.8724   19.3454   21.2338 H   0  0  0  0  0  0  0  0  0  0  0  0
   19.2584   18.7620   20.8184 H   0  0  0  0  0  0  0  0  0  0  0  0
   20.0314   17.9651   22.6866 C   0  0  0  0  0  0  0  0  0  0  0  0
   20.6592   18.3055   23.5216 H   0  0  0  0  0  0  0  0  0  0  0  0
   19.0455   17.7222   23.1062 H   0  0  0  0  0  0  0  0  0  0  0  0
   20.6506   16.6983   22.0600 C   0  0  0  0  0  0  0  0  0  0  0  0
   21.6380   16.9368   21.6409 H   0  0  0  0  0  0  0  0  0  0  0  0
   20.0243   16.3536   21.2255 H   0  0  0  0  0  0  0  0  0  0  0  0
   20.7939   15.5646   23.0952 C   0  0  0  0  0  0  0  0  0  0  0  0
   19.8161   15.2838   23.5080 H   0  0  0  0  0  0  0  0  0  0  0  0
   21.4419   15.8715   23.9267 H   0  0  0  0  0  0  0  0  0  0  0  0
   21.2356   14.6722   22.6329 H   0  0  0  0  0  0  0  0  0  0  0  0
  1  2  1  0  0  0  0
  1  3  2  0  0  0  0
  1  4  1  0  0  0  0
  4  5  1  0  0  0  0
  4  6  1  0  0  0  0
  4  7  1  0  0  0  0
  7  8  1  0  0  0  0
  7  9  1  0  0  0  0
  7 10  1  0  0  0  0
 10 11  1  0  0  0  0
 10 12  1  0  0  0  0
 10 13  1  0  0  0  0
 13 14  1  0  0  0  0
 13 15  1  0  0  0  0
 13 16  1  0  0  0  0
 16 17  1  0  0  0  0
 16 18  1  0  0  0  0
 16 19  1  0  0  0  0
 19 20  1  0  0  0  0
 19 21  1  0  0  0  0
 19 22  1  0  0  0  0
M  END
> <VConfSearch Rank>
362

> <Conf_Id>
10

> <Delta U+W>
-1.291

> <U+W>
-54.451

> <U>
5.779

> <W>
-60.230

> <W(PB)>
-62.557

> <W(SA)>
2.328

> <Valence>
7.101

> <Coulomb>
-2.079

> <VdW>
0.757

> <VdW6>
-6.496

> <VdW12>
7.253

> <Bond>
0.100

> <Angle>
2.262

> <Pdih>
4.738

> <Idih>
0.001

> <Tether>
0.000

$$$$
VeraChem MOL file


 22 21  0  0  0  0  0  0  0  0999 V2000     
   21.3883   15.3744   22.6208 C   0  0  0  0  0  0  0  0  0  0  0  0
   20.5729   14.4952   22.4242 O   0  5  0  0  0  0  0  0  0  0  0  0
   22.5832   15.2344   22.4504 O   0  0  0  0  0  0  0  0  0  0  0  0
   20.8821   16.7348   23.0869 C   0  0  0  0  0  0  0  0  0  0  0  0
   21.6494   17.1818   23.7303 H   0  0  0  0  0  0  0  0  0  0  0  0
   19.9926   16.5730   23.7075 H   0  0  0  0  0  0  0  0  0  0  0  0
   20.5482   17.6874   21.9125 C   0  0  0  0  0  0  0  0  0  0  0  0
   21.4453   17.8282   21.2936 H   0  0  0  0  0  0  0  0  0  0  0  0
   19.7881   17.2202   21.2710 H   0  0  0  0  0  0  0  0  0  0  0  0
   20.0381   19.0571   22.4104 C   0  0  0  0  0  0  0  0  0  0  0  0
   20.8007   19.5226   23.0496 H   0  0  0  0  0  0  0  0  0  0  0  0
   19.1468   18.9044   23.0329 H   0  0  0  0  0  0  0  0  0  0  0  0
   19.7027   20.0030   21.2344 C   0  0  0  0  0  0  0  0  0  0  0  0
   20.5831   20.0891   20.5828 H   0  0  0  0  0  0  0  0  0  0  0  0
   18.9040   19.5631   20.6216 H   0  0  0  0  0  0  0  0  0  0  0  0
   19.2858   21.4219   21.6862 C   0  0  0  0  0  0  0  0  0  0  0  0
   19.1812   22.0584   20.7967 H   0  0  0  0  0  0  0  0  0  0  0  0
   20.0851   21.8676   22.2943 H   0  0  0  0  0  0  0  0  0  0  0  0
   17.9582   21.4471   22.4742 C   0  0  0  0  0  0  0  0  0  0  0  0
   17.6618   22.4810   22.6936 H   0  0  0  0  0  0  0  0  0  0  0  0
   18.0499   20.9181   23.4309 H   0  0  0  0  0  0  0  0  0  0  0  0
   17.1499   20.9791   21.8973 H   0  0  0  0  0  0  0  0  0  0  0  0
  1  2  1  0  0  0  0
  1  3  2  0  0  0  0
  1  4  1  0  0  0  0
  4  5  1  0  0  0  0
  4  6  1  0  0  0  0
  4  7  1  0  0  0  0
  7  8  1  0  0  0  0
  7  9  1  0  0  0  0
  7 10  1  0  0  0  0
 10 11  1  0  0  0  0
 10 12  1  0  0  0  0
 10 13  1  0  0  0  0
 13 14  1  0  0  0  0
 13 15  1  0  0  0  0
 13 16  1  0  0  0  0
 16 17  1  0  0  0  0
 16 18  1  0  0  0  0
 16 19  1  0  0  0  0
 19 20  1  0  0  0  0
 19 21  1  0  0  0  0
 19 22  1  0  0  0  0
M  END
> <VConfSearch Rank>
363

> <Conf_Id>
37

> <Delta U+W>
-0.345

> <U+W>
-53.504

> <U>
6.751

> <W>
-60.255

> <W(PB)>
-62.592

> <W(SA)>
2.336

> <Valence>
7.602

> <Coulomb>
-1.744

> <VdW>
0.894

> <VdW6>
-7.110

> <VdW12>
8.004

> <Bond>
0.131

> <Angle>
2.489

> <Pdih>
4.982

> <Idih>
0.001

> <Tether>
0.000

$$$$
VeraChem MOL file


 22 21  0  0  0  0  0  0  0  0999 V2000     
   16.4489   19.1674   20.2362 C   0  0  0  0  0  0  0  0  0  0  0  0
   15.6085   18.4063   20.6732 O   0  5  0  0  0  0  0  0  0  0  0  0
   16.4834   19.5401   19.0802 O   0  0  0  0  0  0  0  0  0  0  0  0
   17.5328   19.6652   21.1857 C   0  0  0  0  0  0  0  0  0  0  0  0
   17.0972   19.7430   22.1892 H   0  0  0  0  0  0  0  0  0  0  0  0
   17.8178   20.6780   20.8766 H   0  0  0  0  0  0  0  0  0  0  0  0
   18.7778   18.7447   21.2134 C   0  0  0  0  0  0  0  0  0  0  0  0
   18.4739   17.7320   21.5126 H   0  0  0  0  0  0  0  0  0  0  0  0
   19.1936   18.6666   20.1992 H   0  0  0  0  0  0  0  0  0  0  0  0
   19.8599   19.2702   22.1815 C   0  0  0  0  0  0  0  0  0  0  0  0
   19.4323   19.3512   23.1893 H   0  0  0  0  0  0  0  0  0  0  0  0
   20.1634   20.2817   21.8787 H   0  0  0  0  0  0  0  0  0  0  0  0
   21.0989   18.3459   22.2084 C   0  0  0  0  0  0  0  0  0  0  0  0
   20.8078   17.3466   22.5598 H   0  0  0  0  0  0  0  0  0  0  0  0
   21.4722   18.2186   21.1830 H   0  0  0  0  0  0  0  0  0  0  0  0
   22.2510   18.8873   23.0864 C   0  0  0  0  0  0  0  0  0  0  0  0
   22.5493   19.8843   22.7338 H   0  0  0  0  0  0  0  0  0  0  0  0
   23.1276   18.2376   22.9575 H   0  0  0  0  0  0  0  0  0  0  0  0
   21.8970   18.9519   24.5880 C   0  0  0  0  0  0  0  0  0  0  0  0
   21.5666   17.9719   24.9562 H   0  0  0  0  0  0  0  0  0  0  0  0
   21.0988   19.6795   24.7806 H   0  0  0  0  0  0  0  0  0  0  0  0
   22.7725   19.2562   25.1759 H   0  0  0  0  0  0  0  0  0  0  0  0
  1  2  1  0  0  0  0
  1  3  2  0  0  0  0
  1  4  1  0  0  0  0
  4  5  1  0  0  0  0
  4  6  1  0  0  0  0
  4  7  1  0  0  0  0
  7  8  1  0  0  0  0
  7  9  1  0  0  0  0
  7 10  1  0  0  0  0
 10 11  1  0  0  0  0
 10 12  1  0  0  0  0
 10 13  1  0  0  0  0
 13 14  1  0  0  0  0
 13 15  1  0  0  0  0
 13 16  1  0  0  0  0
 16 17  1  0  0  0  0
 16 18  1  0  0  0  0
 16 19  1  0  0  0  0
 19 20  1  0  0  0  0
 19 21  1  0  0  0  0
 19 22  1  0  0  0  0
M  END
> <VConfSearch Rank>
364

> <Conf_Id>
38

> <Delta U+W>
-0.439

> <U+W>
-53.598

> <U>
6.751

> <W>
-60.350

> <W(PB)>
-62.659

> <W(SA)>
2.309

> <Valence>
7.602

> <Coulomb>
-1.744

> <VdW>
0.893

> <VdW6>
-7.110

> <VdW12>
8.004

> <Bond>
0.131

> <Angle>
2.489

> <Pdih>
4.981

> <Idih>
0.001

> <Tether>
0.000

$$$$
VeraChem MOL file


 22 21  0  0  0  0  0  0  0  0999 V2000     
   16.1804   18.9318   22.9963 C   0  0  0  0  0  0  0  0  0  0  0  0
   15.6404   19.6823   23.7847 O   0  5  0  0  0  0  0  0  0  0  0  0
   15.7062   17.8692   22.6462 O   0  0  0  0  0  0  0  0  0  0  0  0
   17.5383   19.3353   22.4327 C   0  0  0  0  0  0  0  0  0  0  0  0
   17.5659   20.4293   22.3629 H   0  0  0  0  0  0  0  0  0  0  0  0
   17.6048   18.9420   21.4123 H   0  0  0  0  0  0  0  0  0  0  0  0
   18.7214   18.8242   23.2957 C   0  0  0  0  0  0  0  0  0  0  0  0
   18.5691   19.1566   24.3319 H   0  0  0  0  0  0  0  0  0  0  0  0
   18.7123   17.7257   23.3184 H   0  0  0  0  0  0  0  0  0  0  0  0
   20.1037   19.3262   22.8141 C   0  0  0  0  0  0  0  0  0  0  0  0
   20.8508   19.0328   23.5625 H   0  0  0  0  0  0  0  0  0  0  0  0
   20.1066   20.4243   22.7845 H   0  0  0  0  0  0  0  0  0  0  0  0
   20.5142   18.7649   21.4304 C   0  0  0  0  0  0  0  0  0  0  0  0
   20.5095   17.6668   21.4596 H   0  0  0  0  0  0  0  0  0  0  0  0
   19.7695   19.0600   20.6805 H   0  0  0  0  0  0  0  0  0  0  0  0
   21.8978   19.2634   20.9515 C   0  0  0  0  0  0  0  0  0  0  0  0
   21.9103   20.3619   20.9319 H   0  0  0  0  0  0  0  0  0  0  0  0
   22.0504   18.9333   19.9147 H   0  0  0  0  0  0  0  0  0  0  0  0
   23.0697   18.7448   21.8131 C   0  0  0  0  0  0  0  0  0  0  0  0
   23.0286   19.1486   22.8322 H   0  0  0  0  0  0  0  0  0  0  0  0
   24.0300   19.0468   21.3756 H   0  0  0  0  0  0  0  0  0  0  0  0
   23.0568   17.6488   21.8753 H   0  0  0  0  0  0  0  0  0  0  0  0
  1  2  1  0  0  0  0
  1  3  2  0  0  0  0
  1  4  1  0  0  0  0
  4  5  1  0  0  0  0
  4  6  1  0  0  0  0
  4  7  1  0  0  0  0
  7  8  1  0  0  0  0
  7  9  1  0  0  0  0
  7 10  1  0  0  0  0
 10 11  1  0  0  0  0
 10 12  1  0  0  0  0
 10 13  1  0  0  0  0
 13 14  1  0  0  0  0
 13 15  1  0  0  0  0
 13 16  1  0  0  0  0
 16 17  1  0  0  0  0
 16 18  1  0  0  0  0
 16 19  1  0  0  0  0
 19 20  1  0  0  0  0
 19 21  1  0  0  0  0
 19 22  1  0  0  0  0
M  END
> <VConfSearch Rank>
365

> <Conf_Id>
60

> <Delta U+W>
0.386

> <U+W>
-52.773

> <U>
7.689

> <W>
-60.463

> <W(PB)>
-62.772

> <W(SA)>
2.309

> <Valence>
8.197

> <Coulomb>
-1.561

> <VdW>
1.053

> <VdW6>
-7.737

> <VdW12>
8.790

> <Bond>
0.181

> <Angle>
2.780

> <Pdih>
5.235

> <Idih>
0.001

> <Tether>
0.000

$$$$
VeraChem MOL file


 22 21  0  0  0  0  0  0  0  0999 V2000     
   16.6664   19.7140   24.0944 C   0  0  0  0  0  0  0  0  0  0  0  0
   16.4805   20.9146   24.1174 O   0  5  0  0  0  0  0  0  0  0  0  0
   16.1220   18.9344   24.8509 O   0  0  0  0  0  0  0  0  0  0  0  0
   17.6543   19.1574   23.0753 C   0  0  0  0  0  0  0  0  0  0  0  0
   17.5962   19.7850   22.1790 H   0  0  0  0  0  0  0  0  0  0  0  0
   17.3200   18.1523   22.7916 H   0  0  0  0  0  0  0  0  0  0  0  0
   19.1073   19.1055   23.6153 C   0  0  0  0  0  0  0  0  0  0  0  0
   19.4489   20.1231   23.8501 H   0  0  0  0  0  0  0  0  0  0  0  0
   19.1094   18.5515   24.5643 H   0  0  0  0  0  0  0  0  0  0  0  0
   20.1062   18.4288   22.6462 C   0  0  0  0  0  0  0  0  0  0  0  0
   19.7575   17.4150   22.4072 H   0  0  0  0  0  0  0  0  0  0  0  0
   21.0630   18.3134   23.1712 H   0  0  0  0  0  0  0  0  0  0  0  0
   20.3306   19.2265   21.3380 C   0  0  0  0  0  0  0  0  0  0  0  0
   19.3751   19.3400   20.8104 H   0  0  0  0  0  0  0  0  0  0  0  0
   20.6774   20.2410   21.5773 H   0  0  0  0  0  0  0  0  0  0  0  0
   21.3324   18.5521   20.3718 C   0  0  0  0  0  0  0  0  0  0  0  0
   21.3297   19.1039   19.4217 H   0  0  0  0  0  0  0  0  0  0  0  0
   20.9949   17.5327   20.1390 H   0  0  0  0  0  0  0  0  0  0  0  0
   22.7772   18.5107   20.9154 C   0  0  0  0  0  0  0  0  0  0  0  0
   23.1237   19.5162   21.1875 H   0  0  0  0  0  0  0  0  0  0  0  0
   23.4615   18.1121   20.1552 H   0  0  0  0  0  0  0  0  0  0  0  0
   22.8552   17.8677   21.8007 H   0  0  0  0  0  0  0  0  0  0  0  0
  1  2  1  0  0  0  0
  1  3  2  0  0  0  0
  1  4  1  0  0  0  0
  4  5  1  0  0  0  0
  4  6  1  0  0  0  0
  4  7  1  0  0  0  0
  7  8  1  0  0  0  0
  7  9  1  0  0  0  0
  7 10  1  0  0  0  0
 10 11  1  0  0  0  0
 10 12  1  0  0  0  0
 10 13  1  0  0  0  0
 13 14  1  0  0  0  0
 13 15  1  0  0  0  0
 13 16  1  0  0  0  0
 16 17  1  0  0  0  0
 16 18  1  0  0  0  0
 16 19  1  0  0  0  0
 19 20  1  0  0  0  0
 19 21  1  0  0  0  0
 19 22  1  0  0  0  0
M  END
> <VConfSearch Rank>
366

> <Conf_Id>
28

> <Delta U+W>
0.351

> <U+W>
-52.808

> <U>
7.689

> <W>
-60.498

> <W(PB)>
-62.768

> <W(SA)>
2.270

> <Valence>
8.197

> <Coulomb>
-1.561

> <VdW>
1.053

> <VdW6>
-7.737

> <VdW12>
8.791

> <Bond>
0.181

> <Angle>
2.780

> <Pdih>
5.235

> <Idih>
0.001

> <Tether>
0.000

$$$$
VeraChem MOL file


 22 21  0  0  0  0  0  0  0  0999 V2000     
   22.1859   16.0536   23.1228 C   0  0  0  0  0  0  0  0  0  0  0  0
   23.3540   16.1712   22.8093 O   0  5  0  0  0  0  0  0  0  0  0  0
   21.8173   15.5978   24.1871 O   0  0  0  0  0  0  0  0  0  0  0  0
   21.1244   16.5224   22.1340 C   0  0  0  0  0  0  0  0  0  0  0  0
   20.2401   15.8854   22.2558 H   0  0  0  0  0  0  0  0  0  0  0  0
   21.5068   16.3561   21.1197 H   0  0  0  0  0  0  0  0  0  0  0  0
   20.7406   18.0106   22.3241 C   0  0  0  0  0  0  0  0  0  0  0  0
   20.3805   18.1555   23.3512 H   0  0  0  0  0  0  0  0  0  0  0  0
   21.6378   18.6342   22.2079 H   0  0  0  0  0  0  0  0  0  0  0  0
   19.6600   18.4577   21.3125 C   0  0  0  0  0  0  0  0  0  0  0  0
   18.7444   17.8696   21.4638 H   0  0  0  0  0  0  0  0  0  0  0  0
   20.0088   18.2333   20.2952 H   0  0  0  0  0  0  0  0  0  0  0  0
   19.3258   19.9661   21.3939 C   0  0  0  0  0  0  0  0  0  0  0  0
   20.2404   20.5546   21.2385 H   0  0  0  0  0  0  0  0  0  0  0  0
   18.6501   20.2180   20.5651 H   0  0  0  0  0  0  0  0  0  0  0  0
   18.6606   20.3792   22.7262 C   0  0  0  0  0  0  0  0  0  0  0  0
   19.3507   20.2083   23.5629 H   0  0  0  0  0  0  0  0  0  0  0  0
   17.7751   19.7546   22.9077 H   0  0  0  0  0  0  0  0  0  0  0  0
   18.2458   21.8643   22.7143 C   0  0  0  0  0  0  0  0  0  0  0  0
   17.5239   22.0646   21.9118 H   0  0  0  0  0  0  0  0  0  0  0  0
   19.1175   22.5140   22.5616 H   0  0  0  0  0  0  0  0  0  0  0  0
   17.7783   22.1429   23.6677 H   0  0  0  0  0  0  0  0  0  0  0  0
  1  2  1  0  0  0  0
  1  3  2  0  0  0  0
  1  4  1  0  0  0  0
  4  5  1  0  0  0  0
  4  6  1  0  0  0  0
  4  7  1  0  0  0  0
  7  8  1  0  0  0  0
  7  9  1  0  0  0  0
  7 10  1  0  0  0  0
 10 11  1  0  0  0  0
 10 12  1  0  0  0  0
 10 13  1  0  0  0  0
 13 14  1  0  0  0  0
 13 15  1  0  0  0  0
 13 16  1  0  0  0  0
 16 17  1  0  0  0  0
 16 18  1  0  0  0  0
 16 19  1  0  0  0  0
 19 20  1  0  0  0  0
 19 21  1  0  0  0  0
 19 22  1  0  0  0  0
M  END
> <VConfSearch Rank>
367

> <Conf_Id>
50

> <Delta U+W>
-0.486

> <U+W>
-53.646

> <U>
7.026

> <W>
-60.672

> <W(PB)>
-62.964

> <W(SA)>
2.292

> <Valence>
7.637

> <Coulomb>
-1.488

> <VdW>
0.877

> <VdW6>
-7.165

> <VdW12>
8.043

> <Bond>
0.134

> <Angle>
2.513

> <Pdih>
4.990

> <Idih>
0.001

> <Tether>
0.000

$$$$
VeraChem MOL file


 22 21  0  0  0  0  0  0  0  0999 V2000     
   21.2361   21.2907   24.8216 C   0  0  0  0  0  0  0  0  0  0  0  0
   20.5321   22.1902   25.2358 O   0  5  0  0  0  0  0  0  0  0  0  0
   22.4120   21.4280   24.5477 O   0  0  0  0  0  0  0  0  0  0  0  0
   20.6041   19.9188   24.6146 C   0  0  0  0  0  0  0  0  0  0  0  0
   19.8225   19.7862   25.3723 H   0  0  0  0  0  0  0  0  0  0  0  0
   21.3712   19.1582   24.8033 H   0  0  0  0  0  0  0  0  0  0  0  0
   20.0104   19.7378   23.1957 C   0  0  0  0  0  0  0  0  0  0  0  0
   19.2509   20.5119   23.0189 H   0  0  0  0  0  0  0  0  0  0  0  0
   20.8062   19.8948   22.4558 H   0  0  0  0  0  0  0  0  0  0  0  0
   19.3807   18.3375   23.0122 C   0  0  0  0  0  0  0  0  0  0  0  0
   18.6422   18.1712   23.8083 H   0  0  0  0  0  0  0  0  0  0  0  0
   20.1517   17.5649   23.1371 H   0  0  0  0  0  0  0  0  0  0  0  0
   18.6782   18.1519   21.6463 C   0  0  0  0  0  0  0  0  0  0  0  0
   18.1562   17.1853   21.6520 H   0  0  0  0  0  0  0  0  0  0  0  0
   17.9045   18.9219   21.5227 H   0  0  0  0  0  0  0  0  0  0  0  0
   19.6483   18.1904   20.4438 C   0  0  0  0  0  0  0  0  0  0  0  0
   20.4523   17.4565   20.5925 H   0  0  0  0  0  0  0  0  0  0  0  0
   20.1240   19.1773   20.3727 H   0  0  0  0  0  0  0  0  0  0  0  0
   18.9187   17.8892   19.1192 C   0  0  0  0  0  0  0  0  0  0  0  0
   18.1261   18.6253   18.9316 H   0  0  0  0  0  0  0  0  0  0  0  0
   18.4620   16.8910   19.1398 H   0  0  0  0  0  0  0  0  0  0  0  0
   19.6197   17.9234   18.2751 H   0  0  0  0  0  0  0  0  0  0  0  0
  1  2  1  0  0  0  0
  1  3  2  0  0  0  0
  1  4  1  0  0  0  0
  4  5  1  0  0  0  0
  4  6  1  0  0  0  0
  4  7  1  0  0  0  0
  7  8  1  0  0  0  0
  7  9  1  0  0  0  0
  7 10  1  0  0  0  0
 10 11  1  0  0  0  0
 10 12  1  0  0  0  0
 10 13  1  0  0  0  0
 13 14  1  0  0  0  0
 13 15  1  0  0  0  0
 13 16  1  0  0  0  0
 16 17  1  0  0  0  0
 16 18  1  0  0  0  0
 16 19  1  0  0  0  0
 19 20  1  0  0  0  0
 19 21  1  0  0  0  0
 19 22  1  0  0  0  0
M  END
> <VConfSearch Rank>
368

> <Conf_Id>
51

> <Delta U+W>
-0.517

> <U+W>
-53.677

> <U>
7.026

> <W>
-60.703

> <W(PB)>
-63.007

> <W(SA)>
2.304

> <Valence>
7.638

> <Coulomb>
-1.488

> <VdW>
0.877

> <VdW6>
-7.165

> <VdW12>
8.042

> <Bond>
0.134

> <Angle>
2.513

> <Pdih>
4.990

> <Idih>
0.001

> <Tether>
0.000

$$$$
VeraChem MOL file


 22 21  0  0  0  0  0  0  0  0999 V2000     
   21.2821   15.9334   21.0498 C   0  0  0  0  0  0  0  0  0  0  0  0
   21.4972   15.0882   21.8961 O   0  5  0  0  0  0  0  0  0  0  0  0
   20.4997   15.7823   20.1323 O   0  0  0  0  0  0  0  0  0  0  0  0
   22.0517   17.2485   21.1352 C   0  0  0  0  0  0  0  0  0  0  0  0
   22.0152   17.7399   20.1553 H   0  0  0  0  0  0  0  0  0  0  0  0
   23.1025   17.0016   21.3274 H   0  0  0  0  0  0  0  0  0  0  0  0
   21.5360   18.2108   22.2365 C   0  0  0  0  0  0  0  0  0  0  0  0
   21.5520   17.6954   23.2069 H   0  0  0  0  0  0  0  0  0  0  0  0
   22.2264   19.0612   22.3187 H   0  0  0  0  0  0  0  0  0  0  0  0
   20.1123   18.7369   21.9468 C   0  0  0  0  0  0  0  0  0  0  0  0
   19.4122   17.8926   21.8801 H   0  0  0  0  0  0  0  0  0  0  0  0
   20.0985   19.2397   20.9701 H   0  0  0  0  0  0  0  0  0  0  0  0
   19.6316   19.7167   23.0388 C   0  0  0  0  0  0  0  0  0  0  0  0
   19.6456   19.2132   24.0152 H   0  0  0  0  0  0  0  0  0  0  0  0
   20.3286   20.5634   23.1054 H   0  0  0  0  0  0  0  0  0  0  0  0
   18.2096   20.2419   22.7506 C   0  0  0  0  0  0  0  0  0  0  0  0
   17.5092   19.3977   22.6850 H   0  0  0  0  0  0  0  0  0  0  0  0
   18.1921   20.7477   21.7752 H   0  0  0  0  0  0  0  0  0  0  0  0
   17.7328   21.2195   23.8434 C   0  0  0  0  0  0  0  0  0  0  0  0
   17.7104   20.7299   24.8258 H   0  0  0  0  0  0  0  0  0  0  0  0
   16.7206   21.5827   23.6227 H   0  0  0  0  0  0  0  0  0  0  0  0
   18.3985   22.0901   23.9093 H   0  0  0  0  0  0  0  0  0  0  0  0
  1  2  1  0  0  0  0
  1  3  2  0  0  0  0
  1  4  1  0  0  0  0
  4  5  1  0  0  0  0
  4  6  1  0  0  0  0
  4  7  1  0  0  0  0
  7  8  1  0  0  0  0
  7  9  1  0  0  0  0
  7 10  1  0  0  0  0
 10 11  1  0  0  0  0
 10 12  1  0  0  0  0
 10 13  1  0  0  0  0
 13 14  1  0  0  0  0
 13 15  1  0  0  0  0
 13 16  1  0  0  0  0
 16 17  1  0  0  0  0
 16 18  1  0  0  0  0
 16 19  1  0  0  0  0
 19 20  1  0  0  0  0
 19 21  1  0  0  0  0
 19 22  1  0  0  0  0
M  END
> <VConfSearch Rank>
369

> <Conf_Id>
43

> <Delta U+W>
-0.129

> <U+W>
-53.289

> <U>
7.937

> <W>
-61.225

> <W(PB)>
-63.523

> <W(SA)>
2.297

> <Valence>
7.358

> <Coulomb>
-0.022

> <VdW>
0.601

> <VdW6>
-7.363

> <VdW12>
7.964

> <Bond>
0.121

> <Angle>
2.425

> <Pdih>
4.811

> <Idih>
0.000

> <Tether>
0.000

$$$$
VeraChem MOL file


 22 21  0  0  0  0  0  0  0  0999 V2000     
   21.7982   17.0086   24.1789 C   0  0  0  0  0  0  0  0  0  0  0  0
   21.2519   15.9942   24.5654 O   0  5  0  0  0  0  0  0  0  0  0  0
   22.2666   17.8460   24.9247 O   0  0  0  0  0  0  0  0  0  0  0  0
   21.9177   17.2322   22.6740 C   0  0  0  0  0  0  0  0  0  0  0  0
   22.2585   16.2901   22.2285 H   0  0  0  0  0  0  0  0  0  0  0  0
   22.7056   17.9730   22.4914 H   0  0  0  0  0  0  0  0  0  0  0  0
   20.5963   17.6777   21.9955 C   0  0  0  0  0  0  0  0  0  0  0  0
   20.7380   17.6800   20.9063 H   0  0  0  0  0  0  0  0  0  0  0  0
   19.8102   16.9405   22.2107 H   0  0  0  0  0  0  0  0  0  0  0  0
   20.1373   19.0806   22.4524 C   0  0  0  0  0  0  0  0  0  0  0  0
   20.9315   19.8114   22.2472 H   0  0  0  0  0  0  0  0  0  0  0  0
   19.9768   19.0818   23.5394 H   0  0  0  0  0  0  0  0  0  0  0  0
   18.8380   19.5167   21.7416 C   0  0  0  0  0  0  0  0  0  0  0  0
   18.9968   19.5191   20.6545 H   0  0  0  0  0  0  0  0  0  0  0  0
   18.0443   18.7855   21.9474 H   0  0  0  0  0  0  0  0  0  0  0  0
   18.3786   20.9174   22.1980 C   0  0  0  0  0  0  0  0  0  0  0  0
   19.1695   21.6519   21.9922 H   0  0  0  0  0  0  0  0  0  0  0  0
   18.2170   20.9183   23.2849 H   0  0  0  0  0  0  0  0  0  0  0  0
   17.0806   21.3492   21.4866 C   0  0  0  0  0  0  0  0  0  0  0  0
   17.2230   21.3874   20.3986 H   0  0  0  0  0  0  0  0  0  0  0  0
   16.7686   22.3466   21.8228 H   0  0  0  0  0  0  0  0  0  0  0  0
   16.2633   20.6482   21.7011 H   0  0  0  0  0  0  0  0  0  0  0  0
  1  2  1  0  0  0  0
  1  3  2  0  0  0  0
  1  4  1  0  0  0  0
  4  5  1  0  0  0  0
  4  6  1  0  0  0  0
  4  7  1  0  0  0  0
  7  8  1  0  0  0  0
  7  9  1  0  0  0  0
  7 10  1  0  0  0  0
 10 11  1  0  0  0  0
 10 12  1  0  0  0  0
 10 13  1  0  0  0  0
 13 14  1  0  0  0  0
 13 15  1  0  0  0  0
 13 16  1  0  0  0  0
 16 17  1  0  0  0  0
 16 18  1  0  0  0  0
 16 19  1  0  0  0  0
 19 20  1  0  0  0  0
 19 21  1  0  0  0  0
 19 22  1  0  0  0  0
M  END
> <VConfSearch Rank>
370

> <Conf_Id>
44

> <Delta U+W>
-0.155

> <U+W>
-53.314

> <U>
7.937

> <W>
-61.252

> <W(PB)>
-63.556

> <W(SA)>
2.304

> <Valence>
7.358

> <Coulomb>
-0.021

> <VdW>
0.600

> <VdW6>
-7.363

> <VdW12>
7.964

> <Bond>
0.121

> <Angle>
2.425

> <Pdih>
4.811

> <Idih>
0.001

> <Tether>
0.000

$$$$
VeraChem MOL file


 22 21  0  0  0  0  0  0  0  0999 V2000     
   20.9918   16.2988   24.1841 C   0  0  0  0  0  0  0  0  0  0  0  0
   20.3427   16.1217   25.1961 O   0  5  0  0  0  0  0  0  0  0  0  0
   22.2048   16.3710   24.1677 O   0  0  0  0  0  0  0  0  0  0  0  0
   20.2419   16.4176   22.8602 C   0  0  0  0  0  0  0  0  0  0  0  0
   19.4992   15.6116   22.8317 H   0  0  0  0  0  0  0  0  0  0  0  0
   20.9458   16.2296   22.0404 H   0  0  0  0  0  0  0  0  0  0  0  0
   19.5330   17.7817   22.6548 C   0  0  0  0  0  0  0  0  0  0  0  0
   18.9015   17.7137   21.7600 H   0  0  0  0  0  0  0  0  0  0  0  0
   18.8620   17.9744   23.5033 H   0  0  0  0  0  0  0  0  0  0  0  0
   20.5326   18.9530   22.4998 C   0  0  0  0  0  0  0  0  0  0  0  0
   21.1749   18.7790   21.6257 H   0  0  0  0  0  0  0  0  0  0  0  0
   21.1989   18.9761   23.3730 H   0  0  0  0  0  0  0  0  0  0  0  0
   19.8486   20.3350   22.3738 C   0  0  0  0  0  0  0  0  0  0  0  0
   19.2062   20.5085   23.2480 H   0  0  0  0  0  0  0  0  0  0  0  0
   20.6258   21.1110   22.4010 H   0  0  0  0  0  0  0  0  0  0  0  0
   19.0220   20.4996   21.0784 C   0  0  0  0  0  0  0  0  0  0  0  0
   18.1884   19.7854   21.0676 H   0  0  0  0  0  0  0  0  0  0  0  0
   19.6506   20.2727   20.2063 H   0  0  0  0  0  0  0  0  0  0  0  0
   18.4586   21.9288   20.9453 C   0  0  0  0  0  0  0  0  0  0  0  0
   17.8036   22.1727   21.7920 H   0  0  0  0  0  0  0  0  0  0  0  0
   17.8718   22.0288   20.0229 H   0  0  0  0  0  0  0  0  0  0  0  0
   19.2683   22.6695   20.9135 H   0  0  0  0  0  0  0  0  0  0  0  0
  1  2  1  0  0  0  0
  1  3  2  0  0  0  0
  1  4  1  0  0  0  0
  4  5  1  0  0  0  0
  4  6  1  0  0  0  0
  4  7  1  0  0  0  0
  7  8  1  0  0  0  0
  7  9  1  0  0  0  0
  7 10  1  0  0  0  0
 10 11  1  0  0  0  0
 10 12  1  0  0  0  0
 10 13  1  0  0  0  0
 13 14  1  0  0  0  0
 13 15  1  0  0  0  0
 13 16  1  0  0  0  0
 16 17  1  0  0  0  0
 16 18  1  0  0  0  0
 16 19  1  0  0  0  0
 19 20  1  0  0  0  0
 19 21  1  0  0  0  0
 19 22  1  0  0  0  0
M  END
> <VConfSearch Rank>
371

> <Conf_Id>
53

> <Delta U+W>
0.723

> <U+W>
-52.436

> <U>
8.587

> <W>
-61.022

> <W(PB)>
-63.285

> <W(SA)>
2.263

> <Valence>
7.933

> <Coulomb>
-0.124

> <VdW>
0.778

> <VdW6>
-7.981

> <VdW12>
8.759

> <Bond>
0.160

> <Angle>
2.698

> <Pdih>
5.074

> <Idih>
0.001

> <Tether>
0.000

$$$$
VeraChem MOL file


 22 21  0  0  0  0  0  0  0  0999 V2000     
   22.1976   17.2313   23.8178 C   0  0  0  0  0  0  0  0  0  0  0  0
   22.8955   16.7273   22.9602 O   0  5  0  0  0  0  0  0  0  0  0  0
   22.4308   17.1512   25.0076 O   0  0  0  0  0  0  0  0  0  0  0  0
   20.9744   18.0267   23.3760 C   0  0  0  0  0  0  0  0  0  0  0  0
   20.2089   17.9363   24.1558 H   0  0  0  0  0  0  0  0  0  0  0  0
   20.5809   17.5527   22.4697 H   0  0  0  0  0  0  0  0  0  0  0  0
   21.2935   19.5191   23.1080 C   0  0  0  0  0  0  0  0  0  0  0  0
   21.8115   19.9312   23.9851 H   0  0  0  0  0  0  0  0  0  0  0  0
   22.0012   19.5925   22.2707 H   0  0  0  0  0  0  0  0  0  0  0  0
   20.0499   20.3957   22.8152 C   0  0  0  0  0  0  0  0  0  0  0  0
   20.3969   21.4307   22.6914 H   0  0  0  0  0  0  0  0  0  0  0  0
   19.3825   20.4074   23.6878 H   0  0  0  0  0  0  0  0  0  0  0  0
   19.2629   19.9952   21.5417 C   0  0  0  0  0  0  0  0  0  0  0  0
   18.8934   20.9103   21.0589 H   0  0  0  0  0  0  0  0  0  0  0  0
   19.9361   19.5179   20.8164 H   0  0  0  0  0  0  0  0  0  0  0  0
   18.0495   19.0822   21.8326 C   0  0  0  0  0  0  0  0  0  0  0  0
   17.3577   19.5965   22.5138 H   0  0  0  0  0  0  0  0  0  0  0  0
   18.3690   18.1659   22.3432 H   0  0  0  0  0  0  0  0  0  0  0  0
   17.3021   18.7056   20.5377 C   0  0  0  0  0  0  0  0  0  0  0  0
   16.9327   19.6018   20.0222 H   0  0  0  0  0  0  0  0  0  0  0  0
   16.4401   18.0637   20.7613 H   0  0  0  0  0  0  0  0  0  0  0  0
   17.9609   18.1607   19.8490 H   0  0  0  0  0  0  0  0  0  0  0  0
  1  2  1  0  0  0  0
  1  3  2  0  0  0  0
  1  4  1  0  0  0  0
  4  5  1  0  0  0  0
  4  6  1  0  0  0  0
  4  7  1  0  0  0  0
  7  8  1  0  0  0  0
  7  9  1  0  0  0  0
  7 10  1  0  0  0  0
 10 11  1  0  0  0  0
 10 12  1  0  0  0  0
 10 13  1  0  0  0  0
 13 14  1  0  0  0  0
 13 15  1  0  0  0  0
 13 16  1  0  0  0  0
 16 17  1  0  0  0  0
 16 18  1  0  0  0  0
 16 19  1  0  0  0  0
 19 20  1  0  0  0  0
 19 21  1  0  0  0  0
 19 22  1  0  0  0  0
M  END
> <VConfSearch Rank>
372

> <Conf_Id>
5

> <Delta U+W>
2.167

> <U+W>
-50.993

> <U>
10.045

> <W>
-61.037

> <W(PB)>
-63.303

> <W(SA)>
2.266

> <Valence>
10.100

> <Coulomb>
-0.883

> <VdW>
0.828

> <VdW6>
-8.177

> <VdW12>
9.005

> <Bond>
0.182

> <Angle>
2.988

> <Pdih>
6.930

> <Idih>
0.001

> <Tether>
0.000

$$$$
VeraChem MOL file


 22 21  0  0  0  0  0  0  0  0999 V2000     
   18.4101   19.9113   19.5163 C   0  0  0  0  0  0  0  0  0  0  0  0
   18.4368   21.1252   19.4674 O   0  5  0  0  0  0  0  0  0  0  0  0
   17.8583   19.2167   18.6860 O   0  0  0  0  0  0  0  0  0  0  0  0
   19.0865   19.2228   20.6963 C   0  0  0  0  0  0  0  0  0  0  0  0
   19.9575   19.8256   20.9767 H   0  0  0  0  0  0  0  0  0  0  0  0
   19.4545   18.2473   20.3567 H   0  0  0  0  0  0  0  0  0  0  0  0
   18.1405   19.0460   21.9108 C   0  0  0  0  0  0  0  0  0  0  0  0
   17.8462   20.0356   22.2865 H   0  0  0  0  0  0  0  0  0  0  0  0
   17.2163   18.5597   21.5692 H   0  0  0  0  0  0  0  0  0  0  0  0
   18.7376   18.2074   23.0688 C   0  0  0  0  0  0  0  0  0  0  0  0
   18.9434   17.1839   22.7266 H   0  0  0  0  0  0  0  0  0  0  0  0
   17.9629   18.1130   23.8421 H   0  0  0  0  0  0  0  0  0  0  0  0
   20.0015   18.8194   23.7244 C   0  0  0  0  0  0  0  0  0  0  0  0
   19.9873   19.9132   23.6229 H   0  0  0  0  0  0  0  0  0  0  0  0
   19.9691   18.6123   24.8028 H   0  0  0  0  0  0  0  0  0  0  0  0
   21.3226   18.2434   23.1644 C   0  0  0  0  0  0  0  0  0  0  0  0
   21.3847   18.4018   22.0811 H   0  0  0  0  0  0  0  0  0  0  0  0
   21.3469   17.1568   23.3250 H   0  0  0  0  0  0  0  0  0  0  0  0
   22.5507   18.8850   23.8408 C   0  0  0  0  0  0  0  0  0  0  0  0
   22.5708   19.9693   23.6697 H   0  0  0  0  0  0  0  0  0  0  0  0
   23.4797   18.4610   23.4381 H   0  0  0  0  0  0  0  0  0  0  0  0
   22.5395   18.7089   24.9244 H   0  0  0  0  0  0  0  0  0  0  0  0
  1  2  1  0  0  0  0
  1  3  2  0  0  0  0
  1  4  1  0  0  0  0
  4  5  1  0  0  0  0
  4  6  1  0  0  0  0
  4  7  1  0  0  0  0
  7  8  1  0  0  0  0
  7  9  1  0  0  0  0
  7 10  1  0  0  0  0
 10 11  1  0  0  0  0
 10 12  1  0  0  0  0
 10 13  1  0  0  0  0
 13 14  1  0  0  0  0
 13 15  1  0  0  0  0
 13 16  1  0  0  0  0
 16 17  1  0  0  0  0
 16 18  1  0  0  0  0
 16 19  1  0  0  0  0
 19 20  1  0  0  0  0
 19 21  1  0  0  0  0
 19 22  1  0  0  0  0
M  END
> <VConfSearch Rank>
373

> <Conf_Id>
6

> <Delta U+W>
2.118

> <U+W>
-51.042

> <U>
10.045

> <W>
-61.086

> <W(PB)>
-63.356

> <W(SA)>
2.270

> <Valence>
10.100

> <Coulomb>
-0.883

> <VdW>
0.828

> <VdW6>
-8.177

> <VdW12>
9.004

> <Bond>
0.182

> <Angle>
2.988

> <Pdih>
6.930

> <Idih>
0.001

> <Tether>
0.000

$$$$
VeraChem MOL file


 22 21  0  0  0  0  0  0  0  0999 V2000     
   21.7419   20.4614   21.7612 C   0  0  0  0  0  0  0  0  0  0  0  0
   21.2936   21.2920   20.9953 O   0  5  0  0  0  0  0  0  0  0  0  0
   22.4338   19.5273   21.4068 O   0  0  0  0  0  0  0  0  0  0  0  0
   21.4823   20.6385   23.2561 C   0  0  0  0  0  0  0  0  0  0  0  0
   21.9662   21.5791   23.5435 H   0  0  0  0  0  0  0  0  0  0  0  0
   21.9972   19.8404   23.8045 H   0  0  0  0  0  0  0  0  0  0  0  0
   19.9840   20.6946   23.6676 C   0  0  0  0  0  0  0  0  0  0  0  0
   19.9208   21.1785   24.6516 H   0  0  0  0  0  0  0  0  0  0  0  0
   19.4295   21.3437   22.9757 H   0  0  0  0  0  0  0  0  0  0  0  0
   19.2879   19.3152   23.7749 C   0  0  0  0  0  0  0  0  0  0  0  0
   18.2941   19.4675   24.2179 H   0  0  0  0  0  0  0  0  0  0  0  0
   19.8425   18.6746   24.4742 H   0  0  0  0  0  0  0  0  0  0  0  0
   19.1219   18.5860   22.4225 C   0  0  0  0  0  0  0  0  0  0  0  0
   18.6590   19.2637   21.6921 H   0  0  0  0  0  0  0  0  0  0  0  0
   20.1063   18.3088   22.0248 H   0  0  0  0  0  0  0  0  0  0  0  0
   18.2622   17.3119   22.5630 C   0  0  0  0  0  0  0  0  0  0  0  0
   17.2690   17.5751   22.9524 H   0  0  0  0  0  0  0  0  0  0  0  0
   18.7231   16.6338   23.2946 H   0  0  0  0  0  0  0  0  0  0  0  0
   18.1056   16.5810   21.2145 C   0  0  0  0  0  0  0  0  0  0  0  0
   17.6184   17.2269   20.4723 H   0  0  0  0  0  0  0  0  0  0  0  0
   17.4931   15.6777   21.3324 H   0  0  0  0  0  0  0  0  0  0  0  0
   19.0831   16.2786   20.8163 H   0  0  0  0  0  0  0  0  0  0  0  0
  1  2  1  0  0  0  0
  1  3  2  0  0  0  0
  1  4  1  0  0  0  0
  4  5  1  0  0  0  0
  4  6  1  0  0  0  0
  4  7  1  0  0  0  0
  7  8  1  0  0  0  0
  7  9  1  0  0  0  0
  7 10  1  0  0  0  0
 10 11  1  0  0  0  0
 10 12  1  0  0  0  0
 10 13  1  0  0  0  0
 13 14  1  0  0  0  0
 13 15  1  0  0  0  0
 13 16  1  0  0  0  0
 16 17  1  0  0  0  0
 16 18  1  0  0  0  0
 16 19  1  0  0  0  0
 19 20  1  0  0  0  0
 19 21  1  0  0  0  0
 19 22  1  0  0  0  0
M  END
> <VConfSearch Rank>
374

> <Conf_Id>
8

> <Delta U+W>
1.886

> <U+W>
-51.274

> <U>
11.237

> <W>
-62.510

> <W(PB)>
-64.777

> <W(SA)>
2.267

> <Valence>
9.029

> <Coulomb>
1.667

> <VdW>
0.540

> <VdW6>
-8.825

> <VdW12>
9.365

> <Bond>
0.186

> <Angle>
3.195

> <Pdih>
5.642

> <Idih>
0.007

> <Tether>
0.000

$$$$
VeraChem MOL file


 22 21  0  0  0  0  0  0  0  0999 V2000     
   18.7805   20.9467   20.2777 C   0  0  0  0  0  0  0  0  0  0  0  0
   18.5577   21.7710   21.1424 O   0  5  0  0  0  0  0  0  0  0  0  0
   18.0110   20.7005   19.3696 O   0  0  0  0  0  0  0  0  0  0  0  0
   20.1111   20.2003   20.3149 C   0  0  0  0  0  0  0  0  0  0  0  0
   20.7874   20.7214   21.0018 H   0  0  0  0  0  0  0  0  0  0  0  0
   20.5590   20.2839   19.3179 H   0  0  0  0  0  0  0  0  0  0  0  0
   19.9877   18.6996   20.6970 C   0  0  0  0  0  0  0  0  0  0  0  0
   19.3684   18.1955   19.9423 H   0  0  0  0  0  0  0  0  0  0  0  0
   20.9797   18.2311   20.6430 H   0  0  0  0  0  0  0  0  0  0  0  0
   19.3764   18.4384   22.0959 C   0  0  0  0  0  0  0  0  0  0  0  0
   19.2520   17.3546   22.2137 H   0  0  0  0  0  0  0  0  0  0  0  0
   18.3688   18.8732   22.1474 H   0  0  0  0  0  0  0  0  0  0  0  0
   20.2392   18.9883   23.2580 C   0  0  0  0  0  0  0  0  0  0  0  0
   21.2535   18.5709   23.1985 H   0  0  0  0  0  0  0  0  0  0  0  0
   20.3404   20.0760   23.1509 H   0  0  0  0  0  0  0  0  0  0  0  0
   19.6420   18.7011   24.6555 C   0  0  0  0  0  0  0  0  0  0  0  0
   18.6213   19.1041   24.7123 H   0  0  0  0  0  0  0  0  0  0  0  0
   20.2315   19.2436   25.4074 H   0  0  0  0  0  0  0  0  0  0  0  0
   19.6316   17.2013   25.0233 C   0  0  0  0  0  0  0  0  0  0  0  0
   18.9564   16.6324   24.3722 H   0  0  0  0  0  0  0  0  0  0  0  0
   19.2897   17.0626   26.0571 H   0  0  0  0  0  0  0  0  0  0  0  0
   20.6373   16.7692   24.9393 H   0  0  0  0  0  0  0  0  0  0  0  0
  1  2  1  0  0  0  0
  1  3  2  0  0  0  0
  1  4  1  0  0  0  0
  4  5  1  0  0  0  0
  4  6  1  0  0  0  0
  4  7  1  0  0  0  0
  7  8  1  0  0  0  0
  7  9  1  0  0  0  0
  7 10  1  0  0  0  0
 10 11  1  0  0  0  0
 10 12  1  0  0  0  0
 10 13  1  0  0  0  0
 13 14  1  0  0  0  0
 13 15  1  0  0  0  0
 13 16  1  0  0  0  0
 16 17  1  0  0  0  0
 16 18  1  0  0  0  0
 16 19  1  0  0  0  0
 19 20  1  0  0  0  0
 19 21  1  0  0  0  0
 19 22  1  0  0  0  0
M  END
> <VConfSearch Rank>
375

> <Conf_Id>
93

> <Delta U+W>
1.836

> <U+W>
-51.323

> <U>
10.427

> <W>
-61.751

> <W(PB)>
-63.980

> <W(SA)>
2.230

> <Valence>
8.446

> <Coulomb>
1.306

> <VdW>
0.676

> <VdW6>
-8.928

> <VdW12>
9.604

> <Bond>
0.209

> <Angle>
3.066

> <Pdih>
5.170

> <Idih>
0.001

> <Tether>
0.000

$$$$
VeraChem MOL file


 22 21  0  0  0  0  0  0  0  0999 V2000     
   18.1394   17.6789   24.6841 C   0  0  0  0  0  0  0  0  0  0  0  0
   17.6274   18.2201   25.6444 O   0  5  0  0  0  0  0  0  0  0  0  0
   19.0323   16.8592   24.7717 O   0  0  0  0  0  0  0  0  0  0  0  0
   17.6101   18.0269   23.2956 C   0  0  0  0  0  0  0  0  0  0  0  0
   16.5186   17.9310   23.3301 H   0  0  0  0  0  0  0  0  0  0  0  0
   17.9640   17.2715   22.5850 H   0  0  0  0  0  0  0  0  0  0  0  0
   17.9840   19.4551   22.8123 C   0  0  0  0  0  0  0  0  0  0  0  0
   17.5166   19.6390   21.8356 H   0  0  0  0  0  0  0  0  0  0  0  0
   17.5450   20.1859   23.5055 H   0  0  0  0  0  0  0  0  0  0  0  0
   19.5059   19.7227   22.7075 C   0  0  0  0  0  0  0  0  0  0  0  0
   19.9770   19.5756   23.6890 H   0  0  0  0  0  0  0  0  0  0  0  0
   19.6466   20.7805   22.4522 H   0  0  0  0  0  0  0  0  0  0  0  0
   20.2160   18.8384   21.6532 C   0  0  0  0  0  0  0  0  0  0  0  0
   20.0947   17.7820   21.9256 H   0  0  0  0  0  0  0  0  0  0  0  0
   19.7352   18.9677   20.6741 H   0  0  0  0  0  0  0  0  0  0  0  0
   21.7303   19.1271   21.5290 C   0  0  0  0  0  0  0  0  0  0  0  0
   22.1798   18.3678   20.8743 H   0  0  0  0  0  0  0  0  0  0  0  0
   22.2110   19.0137   22.5105 H   0  0  0  0  0  0  0  0  0  0  0  0
   22.0444   20.5251   20.9530 C   0  0  0  0  0  0  0  0  0  0  0  0
   21.7216   21.3222   21.6340 H   0  0  0  0  0  0  0  0  0  0  0  0
   21.5448   20.6733   19.9868 H   0  0  0  0  0  0  0  0  0  0  0  0
   23.1245   20.6410   20.7959 H   0  0  0  0  0  0  0  0  0  0  0  0
  1  2  1  0  0  0  0
  1  3  2  0  0  0  0
  1  4  1  0  0  0  0
  4  5  1  0  0  0  0
  4  6  1  0  0  0  0
  4  7  1  0  0  0  0
  7  8  1  0  0  0  0
  7  9  1  0  0  0  0
  7 10  1  0  0  0  0
 10 11  1  0  0  0  0
 10 12  1  0  0  0  0
 10 13  1  0  0  0  0
 13 14  1  0  0  0  0
 13 15  1  0  0  0  0
 13 16  1  0  0  0  0
 16 17  1  0  0  0  0
 16 18  1  0  0  0  0
 16 19  1  0  0  0  0
 19 20  1  0  0  0  0
 19 21  1  0  0  0  0
 19 22  1  0  0  0  0
M  END
> <VConfSearch Rank>
376

> <Conf_Id>
70

> <Delta U+W>
1.803

> <U+W>
-51.356

> <U>
10.428

> <W>
-61.784

> <W(PB)>
-64.014

> <W(SA)>
2.230

> <Valence>
8.445

> <Coulomb>
1.306

> <VdW>
0.676

> <VdW6>
-8.929

> <VdW12>
9.605

> <Bond>
0.209

> <Angle>
3.066

> <Pdih>
5.170

> <Idih>
0.001

> <Tether>
0.000

$$$$
VeraChem MOL file


 22 21  0  0  0  0  0  0  0  0999 V2000     
   18.4319   19.4423   25.4390 C   0  0  0  0  0  0  0  0  0  0  0  0
   18.5514   18.3482   25.9544 O   0  5  0  0  0  0  0  0  0  0  0  0
   17.3706   20.0258   25.3385 O   0  0  0  0  0  0  0  0  0  0  0  0
   19.6878   20.1283   24.9088 C   0  0  0  0  0  0  0  0  0  0  0  0
   20.4691   20.0168   25.6698 H   0  0  0  0  0  0  0  0  0  0  0  0
   19.4870   21.2025   24.8152 H   0  0  0  0  0  0  0  0  0  0  0  0
   20.1945   19.5577   23.5587 C   0  0  0  0  0  0  0  0  0  0  0  0
   21.1644   20.0143   23.3199 H   0  0  0  0  0  0  0  0  0  0  0  0
   20.3697   18.4797   23.6718 H   0  0  0  0  0  0  0  0  0  0  0  0
   19.2064   19.8203   22.3971 C   0  0  0  0  0  0  0  0  0  0  0  0
   18.9781   20.8942   22.3587 H   0  0  0  0  0  0  0  0  0  0  0  0
   18.2542   19.3087   22.5942 H   0  0  0  0  0  0  0  0  0  0  0  0
   19.7496   19.3838   21.0158 C   0  0  0  0  0  0  0  0  0  0  0  0
   19.0432   19.7169   20.2431 H   0  0  0  0  0  0  0  0  0  0  0  0
   20.6979   19.8999   20.8129 H   0  0  0  0  0  0  0  0  0  0  0  0
   19.9495   17.8568   20.8875 C   0  0  0  0  0  0  0  0  0  0  0  0
   19.0149   17.3381   21.1421 H   0  0  0  0  0  0  0  0  0  0  0  0
   20.7107   17.5137   21.6004 H   0  0  0  0  0  0  0  0  0  0  0  0
   20.3831   17.4610   19.4617 C   0  0  0  0  0  0  0  0  0  0  0  0
   19.6249   17.7552   18.7241 H   0  0  0  0  0  0  0  0  0  0  0  0
   20.5238   16.3748   19.3878 H   0  0  0  0  0  0  0  0  0  0  0  0
   21.3307   17.9449   19.1912 H   0  0  0  0  0  0  0  0  0  0  0  0
  1  2  1  0  0  0  0
  1  3  2  0  0  0  0
  1  4  1  0  0  0  0
  4  5  1  0  0  0  0
  4  6  1  0  0  0  0
  4  7  1  0  0  0  0
  7  8  1  0  0  0  0
  7  9  1  0  0  0  0
  7 10  1  0  0  0  0
 10 11  1  0  0  0  0
 10 12  1  0  0  0  0
 10 13  1  0  0  0  0
 13 14  1  0  0  0  0
 13 15  1  0  0  0  0
 13 16  1  0  0  0  0
 16 17  1  0  0  0  0
 16 18  1  0  0  0  0
 16 19  1  0  0  0  0
 19 20  1  0  0  0  0
 19 21  1  0  0  0  0
 19 22  1  0  0  0  0
M  END
> <VConfSearch Rank>
377

> <Conf_Id>
85

> <Delta U+W>
0.707

> <U+W>
-52.452

> <U>
8.925

> <W>
-61.378

> <W(PB)>
-63.661

> <W(SA)>
2.283

> <Valence>
7.881

> <Coulomb>
0.349

> <VdW>
0.695

> <VdW6>
-8.049

> <VdW12>
8.743

> <Bond>
0.156

> <Angle>
2.660

> <Pdih>
5.064

> <Idih>
0.001

> <Tether>
0.000

$$$$
VeraChem MOL file


 22 21  0  0  0  0  0  0  0  0999 V2000     
   17.6772   17.0877   20.6077 C   0  0  0  0  0  0  0  0  0  0  0  0
   16.5263   17.3072   20.9306 O   0  5  0  0  0  0  0  0  0  0  0  0
   18.0573   17.0571   19.4537 O   0  0  0  0  0  0  0  0  0  0  0  0
   18.6976   16.8123   21.7087 C   0  0  0  0  0  0  0  0  0  0  0  0
   19.2766   15.9323   21.4048 H   0  0  0  0  0  0  0  0  0  0  0  0
   18.1603   16.5380   22.6246 H   0  0  0  0  0  0  0  0  0  0  0  0
   19.6624   17.9944   21.9876 C   0  0  0  0  0  0  0  0  0  0  0  0
   20.4460   17.6464   22.6723 H   0  0  0  0  0  0  0  0  0  0  0  0
   20.1584   18.2892   21.0526 H   0  0  0  0  0  0  0  0  0  0  0  0
   18.9445   19.2143   22.6101 C   0  0  0  0  0  0  0  0  0  0  0  0
   18.5248   18.9321   23.5853 H   0  0  0  0  0  0  0  0  0  0  0  0
   18.0902   19.4917   21.9776 H   0  0  0  0  0  0  0  0  0  0  0  0
   19.8443   20.4643   22.7786 C   0  0  0  0  0  0  0  0  0  0  0  0
   20.1949   20.8108   21.7968 H   0  0  0  0  0  0  0  0  0  0  0  0
   19.2142   21.2734   23.1726 H   0  0  0  0  0  0  0  0  0  0  0  0
   21.0436   20.2760   23.7411 C   0  0  0  0  0  0  0  0  0  0  0  0
   20.8119   19.5095   24.4935 H   0  0  0  0  0  0  0  0  0  0  0  0
   21.1985   21.2115   24.2961 H   0  0  0  0  0  0  0  0  0  0  0  0
   22.3611   19.9305   23.0118 C   0  0  0  0  0  0  0  0  0  0  0  0
   22.2821   18.9950   22.4467 H   0  0  0  0  0  0  0  0  0  0  0  0
   23.1809   19.8181   23.7330 H   0  0  0  0  0  0  0  0  0  0  0  0
   22.6388   20.7274   22.3098 H   0  0  0  0  0  0  0  0  0  0  0  0
  1  2  1  0  0  0  0
  1  3  2  0  0  0  0
  1  4  1  0  0  0  0
  4  5  1  0  0  0  0
  4  6  1  0  0  0  0
  4  7  1  0  0  0  0
  7  8  1  0  0  0  0
  7  9  1  0  0  0  0
  7 10  1  0  0  0  0
 10 11  1  0  0  0  0
 10 12  1  0  0  0  0
 10 13  1  0  0  0  0
 13 14  1  0  0  0  0
 13 15  1  0  0  0  0
 13 16  1  0  0  0  0
 16 17  1  0  0  0  0
 16 18  1  0  0  0  0
 16 19  1  0  0  0  0
 19 20  1  0  0  0  0
 19 21  1  0  0  0  0
 19 22  1  0  0  0  0
M  END
> <VConfSearch Rank>
378

> <Conf_Id>
82

> <Delta U+W>
3.438

> <U+W>
-49.721

> <U>
11.773

> <W>
-61.495

> <W(PB)>
-63.749

> <W(SA)>
2.254

> <Valence>
10.419

> <Coulomb>
0.565

> <VdW>
0.789

> <VdW6>
-8.847

> <VdW12>
9.636

> <Bond>
0.200

> <Angle>
3.187

> <Pdih>
7.032

> <Idih>
0.001

> <Tether>
0.000

$$$$
VeraChem MOL file


 22 21  0  0  0  0  0  0  0  0999 V2000     
   22.8869   17.6041   23.2044 C   0  0  0  0  0  0  0  0  0  0  0  0
   23.7358   18.4587   23.0433 O   0  5  0  0  0  0  0  0  0  0  0  0
   22.8255   16.8951   24.1896 O   0  0  0  0  0  0  0  0  0  0  0  0
   21.8566   17.3958   22.0978 C   0  0  0  0  0  0  0  0  0  0  0  0
   21.4013   16.4061   22.2239 H   0  0  0  0  0  0  0  0  0  0  0  0
   22.3996   17.3763   21.1455 H   0  0  0  0  0  0  0  0  0  0  0  0
   20.7568   18.4881   22.0432 C   0  0  0  0  0  0  0  0  0  0  0  0
   21.2284   19.4774   21.9642 H   0  0  0  0  0  0  0  0  0  0  0  0
   20.1667   18.3388   21.1303 H   0  0  0  0  0  0  0  0  0  0  0  0
   19.8177   18.4490   23.2710 C   0  0  0  0  0  0  0  0  0  0  0  0
   20.4213   18.4867   24.1882 H   0  0  0  0  0  0  0  0  0  0  0  0
   19.2862   17.4879   23.2933 H   0  0  0  0  0  0  0  0  0  0  0  0
   18.7902   19.6075   23.3233 C   0  0  0  0  0  0  0  0  0  0  0  0
   18.2247   19.5045   24.2595 H   0  0  0  0  0  0  0  0  0  0  0  0
   19.3127   20.5711   23.3953 H   0  0  0  0  0  0  0  0  0  0  0  0
   17.7788   19.6316   22.1501 C   0  0  0  0  0  0  0  0  0  0  0  0
   16.8030   19.9592   22.5346 H   0  0  0  0  0  0  0  0  0  0  0  0
   17.6267   18.6169   21.7569 H   0  0  0  0  0  0  0  0  0  0  0  0
   18.1895   20.5918   21.0116 C   0  0  0  0  0  0  0  0  0  0  0  0
   18.2724   21.6221   21.3813 H   0  0  0  0  0  0  0  0  0  0  0  0
   17.4383   20.5820   20.2114 H   0  0  0  0  0  0  0  0  0  0  0  0
   19.1528   20.3131   20.5697 H   0  0  0  0  0  0  0  0  0  0  0  0
  1  2  1  0  0  0  0
  1  3  2  0  0  0  0
  1  4  1  0  0  0  0
  4  5  1  0  0  0  0
  4  6  1  0  0  0  0
  4  7  1  0  0  0  0
  7  8  1  0  0  0  0
  7  9  1  0  0  0  0
  7 10  1  0  0  0  0
 10 11  1  0  0  0  0
 10 12  1  0  0  0  0
 10 13  1  0  0  0  0
 13 14  1  0  0  0  0
 13 15  1  0  0  0  0
 13 16  1  0  0  0  0
 16 17  1  0  0  0  0
 16 18  1  0  0  0  0
 16 19  1  0  0  0  0
 19 20  1  0  0  0  0
 19 21  1  0  0  0  0
 19 22  1  0  0  0  0
M  END
> <VConfSearch Rank>
379

> <Conf_Id>
94

> <Delta U+W>
3.471

> <U+W>
-49.688

> <U>
11.773

> <W>
-61.461

> <W(PB)>
-63.710

> <W(SA)>
2.248

> <Valence>
10.419

> <Coulomb>
0.566

> <VdW>
0.789

> <VdW6>
-8.847

> <VdW12>
9.636

> <Bond>
0.200

> <Angle>
3.187

> <Pdih>
7.032

> <Idih>
0.001

> <Tether>
0.000

$$$$
VeraChem MOL file


 22 21  0  0  0  0  0  0  0  0999 V2000     
   21.0472   21.6072   20.5902 C   0  0  0  0  0  0  0  0  0  0  0  0
   21.9805   22.3612   20.7829 O   0  5  0  0  0  0  0  0  0  0  0  0
   20.0587   21.9100   19.9515 O   0  0  0  0  0  0  0  0  0  0  0  0
   21.1119   20.2114   21.1997 C   0  0  0  0  0  0  0  0  0  0  0  0
   22.1616   19.8952   21.2173 H   0  0  0  0  0  0  0  0  0  0  0  0
   20.5772   19.5293   20.5290 H   0  0  0  0  0  0  0  0  0  0  0  0
   20.5113   20.1518   22.6281 C   0  0  0  0  0  0  0  0  0  0  0  0
   21.0122   20.9037   23.2533 H   0  0  0  0  0  0  0  0  0  0  0  0
   19.4527   20.4417   22.5941 H   0  0  0  0  0  0  0  0  0  0  0  0
   20.6625   18.7664   23.3049 C   0  0  0  0  0  0  0  0  0  0  0  0
   20.2619   18.8242   24.3256 H   0  0  0  0  0  0  0  0  0  0  0  0
   21.7319   18.5422   23.4179 H   0  0  0  0  0  0  0  0  0  0  0  0
   19.9864   17.5880   22.5557 C   0  0  0  0  0  0  0  0  0  0  0  0
   20.4977   17.4249   21.5980 H   0  0  0  0  0  0  0  0  0  0  0  0
   20.1436   16.6685   23.1358 H   0  0  0  0  0  0  0  0  0  0  0  0
   18.4700   17.7579   22.2923 C   0  0  0  0  0  0  0  0  0  0  0  0
   18.1105   16.8808   21.7369 H   0  0  0  0  0  0  0  0  0  0  0  0
   18.2941   18.6236   21.6398 H   0  0  0  0  0  0  0  0  0  0  0  0
   17.6388   17.9022   23.5854 C   0  0  0  0  0  0  0  0  0  0  0  0
   17.8122   17.0542   24.2604 H   0  0  0  0  0  0  0  0  0  0  0  0
   16.5669   17.9355   23.3515 H   0  0  0  0  0  0  0  0  0  0  0  0
   17.8916   18.8262   24.1205 H   0  0  0  0  0  0  0  0  0  0  0  0
  1  2  1  0  0  0  0
  1  3  2  0  0  0  0
  1  4  1  0  0  0  0
  4  5  1  0  0  0  0
  4  6  1  0  0  0  0
  4  7  1  0  0  0  0
  7  8  1  0  0  0  0
  7  9  1  0  0  0  0
  7 10  1  0  0  0  0
 10 11  1  0  0  0  0
 10 12  1  0  0  0  0
 10 13  1  0  0  0  0
 13 14  1  0  0  0  0
 13 15  1  0  0  0  0
 13 16  1  0  0  0  0
 16 17  1  0  0  0  0
 16 18  1  0  0  0  0
 16 19  1  0  0  0  0
 19 20  1  0  0  0  0
 19 21  1  0  0  0  0
 19 22  1  0  0  0  0
M  END
> <VConfSearch Rank>
380

> <Conf_Id>
56

> <Delta U+W>
0.853

> <U+W>
-52.307

> <U>
8.874

> <W>
-61.181

> <W(PB)>
-63.413

> <W(SA)>
2.232

> <Valence>
8.479

> <Coulomb>
-0.357

> <VdW>
0.753

> <VdW6>
-9.081

> <VdW12>
9.833

> <Bond>
0.221

> <Angle>
3.208

> <Pdih>
5.050

> <Idih>
0.000

> <Tether>
0.000

$$$$
VeraChem MOL file


 22 21  0  0  0  0  0  0  0  0999 V2000     
   18.3568   15.5241   20.5613 C   0  0  0  0  0  0  0  0  0  0  0  0
   19.4401   14.9725   20.5840 O   0  5  0  0  0  0  0  0  0  0  0  0
   17.3482   14.9886   20.1467 O   0  0  0  0  0  0  0  0  0  0  0  0
   18.2254   16.9601   21.0716 C   0  0  0  0  0  0  0  0  0  0  0  0
   17.4742   16.9559   21.8701 H   0  0  0  0  0  0  0  0  0  0  0  0
   17.8183   17.5627   20.2511 H   0  0  0  0  0  0  0  0  0  0  0  0
   19.5395   17.6014   21.5913 C   0  0  0  0  0  0  0  0  0  0  0  0
   19.9453   16.9894   22.4088 H   0  0  0  0  0  0  0  0  0  0  0  0
   20.2897   17.5969   20.7883 H   0  0  0  0  0  0  0  0  0  0  0  0
   19.3166   19.0471   22.0859 C   0  0  0  0  0  0  0  0  0  0  0  0
   18.5663   19.0490   22.8886 H   0  0  0  0  0  0  0  0  0  0  0  0
   18.9108   19.6569   21.2670 H   0  0  0  0  0  0  0  0  0  0  0  0
   20.6250   19.6832   22.6024 C   0  0  0  0  0  0  0  0  0  0  0  0
   21.0312   19.0736   23.4213 H   0  0  0  0  0  0  0  0  0  0  0  0
   21.3756   19.6815   21.8000 H   0  0  0  0  0  0  0  0  0  0  0  0
   20.4029   21.1279   23.0969 C   0  0  0  0  0  0  0  0  0  0  0  0
   19.6541   21.1333   23.9011 H   0  0  0  0  0  0  0  0  0  0  0  0
   19.9984   21.7412   22.2797 H   0  0  0  0  0  0  0  0  0  0  0  0
   21.7119   21.7595   23.6117 C   0  0  0  0  0  0  0  0  0  0  0  0
   22.1224   21.1832   24.4512 H   0  0  0  0  0  0  0  0  0  0  0  0
   21.5357   22.7858   23.9591 H   0  0  0  0  0  0  0  0  0  0  0  0
   22.4693   21.7957   22.8177 H   0  0  0  0  0  0  0  0  0  0  0  0
  1  2  1  0  0  0  0
  1  3  2  0  0  0  0
  1  4  1  0  0  0  0
  4  5  1  0  0  0  0
  4  6  1  0  0  0  0
  4  7  1  0  0  0  0
  7  8  1  0  0  0  0
  7  9  1  0  0  0  0
  7 10  1  0  0  0  0
 10 11  1  0  0  0  0
 10 12  1  0  0  0  0
 10 13  1  0  0  0  0
 13 14  1  0  0  0  0
 13 15  1  0  0  0  0
 13 16  1  0  0  0  0
 16 17  1  0  0  0  0
 16 18  1  0  0  0  0
 16 19  1  0  0  0  0
 19 20  1  0  0  0  0
 19 21  1  0  0  0  0
 19 22  1  0  0  0  0
M  END
> <VConfSearch Rank>
381

> <Conf_Id>
0

> <Delta U+W>
0.000

> <U+W>
-53.159

> <U>
6.763

> <W>
-59.922

> <W(PB)>
-62.256

> <W(SA)>
2.334

> <Valence>
7.600

> <Coulomb>
-2.139

> <VdW>
1.302

> <VdW6>
-6.786

> <VdW12>
8.088

> <Bond>
0.134

> <Angle>
2.720

> <Pdih>
4.746

> <Idih>
0.000

> <Tether>
0.000

$$$$
VeraChem MOL file


 22 21  0  0  0  0  0  0  0  0999 V2000     
   15.8917   19.1830   23.1063 C   0  0  0  0  0  0  0  0  0  0  0  0
   15.3894   18.1138   23.3911 O   0  5  0  0  0  0  0  0  0  0  0  0
   15.2909   20.0829   22.5534 O   0  0  0  0  0  0  0  0  0  0  0  0
   17.3632   19.3990   23.4411 C   0  0  0  0  0  0  0  0  0  0  0  0
   17.5901   18.8394   24.3565 H   0  0  0  0  0  0  0  0  0  0  0  0
   17.5089   20.4623   23.6665 H   0  0  0  0  0  0  0  0  0  0  0  0
   18.3111   18.9603   22.2977 C   0  0  0  0  0  0  0  0  0  0  0  0
   18.1437   17.8972   22.0754 H   0  0  0  0  0  0  0  0  0  0  0  0
   18.0624   19.5200   21.3853 H   0  0  0  0  0  0  0  0  0  0  0  0
   19.7942   19.1890   22.6609 C   0  0  0  0  0  0  0  0  0  0  0  0
   20.0391   18.6291   23.5740 H   0  0  0  0  0  0  0  0  0  0  0  0
   19.9578   20.2523   22.8839 H   0  0  0  0  0  0  0  0  0  0  0  0
   20.7366   18.7508   21.5194 C   0  0  0  0  0  0  0  0  0  0  0  0
   20.5733   17.6875   21.2962 H   0  0  0  0  0  0  0  0  0  0  0  0
   20.4920   19.3105   20.6061 H   0  0  0  0  0  0  0  0  0  0  0  0
   22.2191   18.9791   21.8816 C   0  0  0  0  0  0  0  0  0  0  0  0
   22.4681   18.4192   22.7937 H   0  0  0  0  0  0  0  0  0  0  0  0
   22.3869   20.0421   22.1037 H   0  0  0  0  0  0  0  0  0  0  0  0
   23.1570   18.5403   20.7392 C   0  0  0  0  0  0  0  0  0  0  0  0
   22.9508   19.1075   19.8220 H   0  0  0  0  0  0  0  0  0  0  0  0
   23.0325   17.4723   20.5171 H   0  0  0  0  0  0  0  0  0  0  0  0
   24.2063   18.7094   21.0135 H   0  0  0  0  0  0  0  0  0  0  0  0
  1  2  1  0  0  0  0
  1  3  2  0  0  0  0
  1  4  1  0  0  0  0
  4  5  1  0  0  0  0
  4  6  1  0  0  0  0
  4  7  1  0  0  0  0
  7  8  1  0  0  0  0
  7  9  1  0  0  0  0
  7 10  1  0  0  0  0
 10 11  1  0  0  0  0
 10 12  1  0  0  0  0
 10 13  1  0  0  0  0
 13 14  1  0  0  0  0
 13 15  1  0  0  0  0
 13 16  1  0  0  0  0
 16 17  1  0  0  0  0
 16 18  1  0  0  0  0
 16 19  1  0  0  0  0
 19 20  1  0  0  0  0
 19 21  1  0  0  0  0
 19 22  1  0  0  0  0
M  END
> <VConfSearch Rank>
382

> <Conf_Id>
10

> <Delta U+W>
-1.291

> <U+W>
-54.451

> <U>
5.779

> <W>
-60.230

> <W(PB)>
-62.557

> <W(SA)>
2.328

> <Valence>
7.101

> <Coulomb>
-2.079

> <VdW>
0.757

> <VdW6>
-6.496

> <VdW12>
7.253

> <Bond>
0.100

> <Angle>
2.262

> <Pdih>
4.738

> <Idih>
0.001

> <Tether>
0.000

$$$$
VeraChem MOL file


 22 21  0  0  0  0  0  0  0  0999 V2000     
   19.7855   16.3109   19.3459 C   0  0  0  0  0  0  0  0  0  0  0  0
   20.6949   16.4496   18.5520 O   0  5  0  0  0  0  0  0  0  0  0  0
   19.2348   15.2491   19.5597 O   0  0  0  0  0  0  0  0  0  0  0  0
   19.3239   17.5325   20.1326 C   0  0  0  0  0  0  0  0  0  0  0  0
   18.2496   17.4273   20.3261 H   0  0  0  0  0  0  0  0  0  0  0  0
   19.4538   18.4164   19.4966 H   0  0  0  0  0  0  0  0  0  0  0  0
   20.0915   17.7154   21.4651 C   0  0  0  0  0  0  0  0  0  0  0  0
   19.9623   16.8168   22.0842 H   0  0  0  0  0  0  0  0  0  0  0  0
   21.1663   17.8067   21.2553 H   0  0  0  0  0  0  0  0  0  0  0  0
   19.6059   18.9583   22.2422 C   0  0  0  0  0  0  0  0  0  0  0  0
   18.5318   18.8633   22.4523 H   0  0  0  0  0  0  0  0  0  0  0  0
   19.7327   19.8485   21.6125 H   0  0  0  0  0  0  0  0  0  0  0  0
   20.3777   19.1386   23.5697 C   0  0  0  0  0  0  0  0  0  0  0  0
   20.2996   18.2134   24.1570 H   0  0  0  0  0  0  0  0  0  0  0  0
   21.4461   19.2847   23.3600 H   0  0  0  0  0  0  0  0  0  0  0  0
   19.8546   20.3119   24.4305 C   0  0  0  0  0  0  0  0  0  0  0  0
   20.3731   20.2969   25.3991 H   0  0  0  0  0  0  0  0  0  0  0  0
   18.7874   20.1659   24.6477 H   0  0  0  0  0  0  0  0  0  0  0  0
   20.0670   21.6935   23.7746 C   0  0  0  0  0  0  0  0  0  0  0  0
   19.7621   22.4947   24.4602 H   0  0  0  0  0  0  0  0  0  0  0  0
   19.4733   21.7975   22.8579 H   0  0  0  0  0  0  0  0  0  0  0  0
   21.1236   21.8498   23.5209 H   0  0  0  0  0  0  0  0  0  0  0  0
  1  2  1  0  0  0  0
  1  3  2  0  0  0  0
  1  4  1  0  0  0  0
  4  5  1  0  0  0  0
  4  6  1  0  0  0  0
  4  7  1  0  0  0  0
  7  8  1  0  0  0  0
  7  9  1  0  0  0  0
  7 10  1  0  0  0  0
 10 11  1  0  0  0  0
 10 12  1  0  0  0  0
 10 13  1  0  0  0  0
 13 14  1  0  0  0  0
 13 15  1  0  0  0  0
 13 16  1  0  0  0  0
 16 17  1  0  0  0  0
 16 18  1  0  0  0  0
 16 19  1  0  0  0  0
 19 20  1  0  0  0  0
 19 21  1  0  0  0  0
 19 22  1  0  0  0  0
M  END
> <VConfSearch Rank>
383

> <Conf_Id>
37

> <Delta U+W>
-0.345

> <U+W>
-53.504

> <U>
6.751

> <W>
-60.255

> <W(PB)>
-62.592

> <W(SA)>
2.336

> <Valence>
7.602

> <Coulomb>
-1.744

> <VdW>
0.894

> <VdW6>
-7.110

> <VdW12>
8.004

> <Bond>
0.131

> <Angle>
2.489

> <Pdih>
4.982

> <Idih>
0.001

> <Tether>
0.000

$$$$
VeraChem MOL file


 22 21  0  0  0  0  0  0  0  0999 V2000     
   20.7340   22.0945   24.3768 C   0  0  0  0  0  0  0  0  0  0  0  0
   21.4735   22.8655   23.7979 O   0  5  0  0  0  0  0  0  0  0  0  0
   20.6928   21.9813   25.5859 O   0  0  0  0  0  0  0  0  0  0  0  0
   19.8229   21.2045   23.5389 C   0  0  0  0  0  0  0  0  0  0  0  0
   19.5453   21.7575   22.6335 H   0  0  0  0  0  0  0  0  0  0  0  0
   18.9014   21.0293   24.1070 H   0  0  0  0  0  0  0  0  0  0  0  0
   20.4820   19.8553   23.1603 C   0  0  0  0  0  0  0  0  0  0  0  0
   21.4092   20.0481   22.6030 H   0  0  0  0  0  0  0  0  0  0  0  0
   20.7660   19.3206   24.0773 H   0  0  0  0  0  0  0  0  0  0  0  0
   19.5398   18.9730   22.3129 C   0  0  0  0  0  0  0  0  0  0  0  0
   19.2567   19.5191   21.4036 H   0  0  0  0  0  0  0  0  0  0  0  0
   18.6148   18.7802   22.8732 H   0  0  0  0  0  0  0  0  0  0  0  0
   20.2037   17.6291   21.9343 C   0  0  0  0  0  0  0  0  0  0  0  0
   21.1018   17.8171   21.3301 H   0  0  0  0  0  0  0  0  0  0  0  0
   20.5444   17.1281   22.8507 H   0  0  0  0  0  0  0  0  0  0  0  0
   19.2596   16.6700   21.1726 C   0  0  0  0  0  0  0  0  0  0  0  0
   18.3629   16.4745   21.7767 H   0  0  0  0  0  0  0  0  0  0  0  0
   19.7660   15.7030   21.0472 H   0  0  0  0  0  0  0  0  0  0  0  0
   18.8444   17.1973   19.7820 C   0  0  0  0  0  0  0  0  0  0  0  0
   19.7260   17.4284   19.1701 H   0  0  0  0  0  0  0  0  0  0  0  0
   18.2338   18.1052   19.8636 H   0  0  0  0  0  0  0  0  0  0  0  0
   18.2503   16.4446   19.2479 H   0  0  0  0  0  0  0  0  0  0  0  0
  1  2  1  0  0  0  0
  1  3  2  0  0  0  0
  1  4  1  0  0  0  0
  4  5  1  0  0  0  0
  4  6  1  0  0  0  0
  4  7  1  0  0  0  0
  7  8  1  0  0  0  0
  7  9  1  0  0  0  0
  7 10  1  0  0  0  0
 10 11  1  0  0  0  0
 10 12  1  0  0  0  0
 10 13  1  0  0  0  0
 13 14  1  0  0  0  0
 13 15  1  0  0  0  0
 13 16  1  0  0  0  0
 16 17  1  0  0  0  0
 16 18  1  0  0  0  0
 16 19  1  0  0  0  0
 19 20  1  0  0  0  0
 19 21  1  0  0  0  0
 19 22  1  0  0  0  0
M  END
> <VConfSearch Rank>
384

> <Conf_Id>
38

> <Delta U+W>
-0.439

> <U+W>
-53.598

> <U>
6.751

> <W>
-60.350

> <W(PB)>
-62.659

> <W(SA)>
2.309

> <Valence>
7.602

> <Coulomb>
-1.744

> <VdW>
0.893

> <VdW6>
-7.110

> <VdW12>
8.004

> <Bond>
0.131

> <Angle>
2.489

> <Pdih>
4.981

> <Idih>
0.001

> <Tether>
0.000

$$$$
VeraChem MOL file


 22 21  0  0  0  0  0  0  0  0999 V2000     
   22.6799   16.5114   22.0084 C   0  0  0  0  0  0  0  0  0  0  0  0
   22.6403   15.5143   21.3152 O   0  5  0  0  0  0  0  0  0  0  0  0
   23.4284   16.6421   22.9567 O   0  0  0  0  0  0  0  0  0  0  0  0
   21.7219   17.6523   21.6842 C   0  0  0  0  0  0  0  0  0  0  0  0
   21.5561   17.6593   20.6003 H   0  0  0  0  0  0  0  0  0  0  0  0
   22.2236   18.5913   21.9430 H   0  0  0  0  0  0  0  0  0  0  0  0
   20.3686   17.5293   22.4318 C   0  0  0  0  0  0  0  0  0  0  0  0
   19.9427   16.5376   22.2257 H   0  0  0  0  0  0  0  0  0  0  0  0
   20.5421   17.5726   23.5159 H   0  0  0  0  0  0  0  0  0  0  0  0
   19.3340   18.6055   22.0242 C   0  0  0  0  0  0  0  0  0  0  0  0
   18.3758   18.3504   22.4944 H   0  0  0  0  0  0  0  0  0  0  0  0
   19.1691   18.5651   20.9389 H   0  0  0  0  0  0  0  0  0  0  0  0
   19.7435   20.0406   22.4377 C   0  0  0  0  0  0  0  0  0  0  0  0
   19.9100   20.0804   23.5228 H   0  0  0  0  0  0  0  0  0  0  0  0
   20.7001   20.2982   21.9658 H   0  0  0  0  0  0  0  0  0  0  0  0
   18.7071   21.1153   22.0340 C   0  0  0  0  0  0  0  0  0  0  0  0
   18.5291   21.0710   20.9506 H   0  0  0  0  0  0  0  0  0  0  0  0
   19.1326   22.1076   22.2378 H   0  0  0  0  0  0  0  0  0  0  0  0
   17.3652   20.9885   22.7876 C   0  0  0  0  0  0  0  0  0  0  0  0
   16.8406   20.0626   22.5211 H   0  0  0  0  0  0  0  0  0  0  0  0
   16.7039   21.8279   22.5367 H   0  0  0  0  0  0  0  0  0  0  0  0
   17.5224   20.9955   23.8740 H   0  0  0  0  0  0  0  0  0  0  0  0
  1  2  1  0  0  0  0
  1  3  2  0  0  0  0
  1  4  1  0  0  0  0
  4  5  1  0  0  0  0
  4  6  1  0  0  0  0
  4  7  1  0  0  0  0
  7  8  1  0  0  0  0
  7  9  1  0  0  0  0
  7 10  1  0  0  0  0
 10 11  1  0  0  0  0
 10 12  1  0  0  0  0
 10 13  1  0  0  0  0
 13 14  1  0  0  0  0
 13 15  1  0  0  0  0
 13 16  1  0  0  0  0
 16 17  1  0  0  0  0
 16 18  1  0  0  0  0
 16 19  1  0  0  0  0
 19 20  1  0  0  0  0
 19 21  1  0  0  0  0
 19 22  1  0  0  0  0
M  END
> <VConfSearch Rank>
385

> <Conf_Id>
60

> <Delta U+W>
0.386

> <U+W>
-52.773

> <U>
7.689

> <W>
-60.463

> <W(PB)>
-62.772

> <W(SA)>
2.309

> <Valence>
8.197

> <Coulomb>
-1.561

> <VdW>
1.053

> <VdW6>
-7.737

> <VdW12>
8.790

> <Bond>
0.181

> <Angle>
2.780

> <Pdih>
5.235

> <Idih>
0.001

> <Tether>
0.000

$$$$
VeraChem MOL file


 22 21  0  0  0  0  0  0  0  0999 V2000     
   21.0647   18.9497   18.6626 C   0  0  0  0  0  0  0  0  0  0  0  0
   20.3290   19.6298   17.9751 O   0  5  0  0  0  0  0  0  0  0  0  0
   21.8365   18.1266   18.2115 O   0  0  0  0  0  0  0  0  0  0  0  0
   21.0000   19.1225   20.1760 C   0  0  0  0  0  0  0  0  0  0  0  0
   20.7695   20.1738   20.3809 H   0  0  0  0  0  0  0  0  0  0  0  0
   21.9978   18.9219   20.5840 H   0  0  0  0  0  0  0  0  0  0  0  0
   19.9528   18.1916   20.8413 C   0  0  0  0  0  0  0  0  0  0  0  0
   18.9509   18.4345   20.4613 H   0  0  0  0  0  0  0  0  0  0  0  0
   20.1580   17.1567   20.5343 H   0  0  0  0  0  0  0  0  0  0  0  0
   19.9563   18.2581   22.3874 C   0  0  0  0  0  0  0  0  0  0  0  0
   20.9612   18.0228   22.7635 H   0  0  0  0  0  0  0  0  0  0  0  0
   19.2911   17.4699   22.7624 H   0  0  0  0  0  0  0  0  0  0  0  0
   19.4965   19.6274   22.9454 C   0  0  0  0  0  0  0  0  0  0  0  0
   20.1628   20.4161   22.5738 H   0  0  0  0  0  0  0  0  0  0  0  0
   18.4924   19.8634   22.5677 H   0  0  0  0  0  0  0  0  0  0  0  0
   19.4958   19.6918   24.4907 C   0  0  0  0  0  0  0  0  0  0  0  0
   19.2929   20.7267   24.7990 H   0  0  0  0  0  0  0  0  0  0  0  0
   20.4959   19.4451   24.8731 H   0  0  0  0  0  0  0  0  0  0  0  0
   18.4460   18.7666   25.1437 C   0  0  0  0  0  0  0  0  0  0  0  0
   17.4420   18.9723   24.7503 H   0  0  0  0  0  0  0  0  0  0  0  0
   18.4212   18.9217   26.2301 H   0  0  0  0  0  0  0  0  0  0  0  0
   18.6762   17.7089   24.9655 H   0  0  0  0  0  0  0  0  0  0  0  0
  1  2  1  0  0  0  0
  1  3  2  0  0  0  0
  1  4  1  0  0  0  0
  4  5  1  0  0  0  0
  4  6  1  0  0  0  0
  4  7  1  0  0  0  0
  7  8  1  0  0  0  0
  7  9  1  0  0  0  0
  7 10  1  0  0  0  0
 10 11  1  0  0  0  0
 10 12  1  0  0  0  0
 10 13  1  0  0  0  0
 13 14  1  0  0  0  0
 13 15  1  0  0  0  0
 13 16  1  0  0  0  0
 16 17  1  0  0  0  0
 16 18  1  0  0  0  0
 16 19  1  0  0  0  0
 19 20  1  0  0  0  0
 19 21  1  0  0  0  0
 19 22  1  0  0  0  0
M  END
> <VConfSearch Rank>
386

> <Conf_Id>
28

> <Delta U+W>
0.351

> <U+W>
-52.808

> <U>
7.689

> <W>
-60.498

> <W(PB)>
-62.768

> <W(SA)>
2.270

> <Valence>
8.197

> <Coulomb>
-1.561

> <VdW>
1.053

> <VdW6>
-7.737

> <VdW12>
8.791

> <Bond>
0.181

> <Angle>
2.780

> <Pdih>
5.235

> <Idih>
0.001

> <Tether>
0.000

$$$$
VeraChem MOL file


 22 21  0  0  0  0  0  0  0  0999 V2000     
   18.4553   22.3319   22.2758 C   0  0  0  0  0  0  0  0  0  0  0  0
   18.6059   22.9956   21.2692 O   0  5  0  0  0  0  0  0  0  0  0  0
   17.4157   22.2875   22.9034 O   0  0  0  0  0  0  0  0  0  0  0  0
   19.6295   21.4929   22.7674 C   0  0  0  0  0  0  0  0  0  0  0  0
   19.5746   21.4378   23.8612 H   0  0  0  0  0  0  0  0  0  0  0  0
   20.5558   22.0230   22.5154 H   0  0  0  0  0  0  0  0  0  0  0  0
   19.6462   20.0680   22.1611 C   0  0  0  0  0  0  0  0  0  0  0  0
   18.7019   19.5659   22.4095 H   0  0  0  0  0  0  0  0  0  0  0  0
   19.6923   20.1405   21.0657 H   0  0  0  0  0  0  0  0  0  0  0  0
   20.8435   19.2383   22.6799 C   0  0  0  0  0  0  0  0  0  0  0  0
   20.7690   19.1211   23.7697 H   0  0  0  0  0  0  0  0  0  0  0  0
   21.7719   19.7941   22.4898 H   0  0  0  0  0  0  0  0  0  0  0  0
   20.9620   17.8458   22.0163 C   0  0  0  0  0  0  0  0  0  0  0  0
   21.0406   17.9627   20.9267 H   0  0  0  0  0  0  0  0  0  0  0  0
   21.9010   17.3814   22.3472 H   0  0  0  0  0  0  0  0  0  0  0  0
   19.7882   16.8994   22.3552 C   0  0  0  0  0  0  0  0  0  0  0  0
   18.8474   17.3078   21.9635 H   0  0  0  0  0  0  0  0  0  0  0  0
   19.6760   16.8238   23.4456 H   0  0  0  0  0  0  0  0  0  0  0  0
   20.0080   15.4921   21.7644 C   0  0  0  0  0  0  0  0  0  0  0  0
   20.9228   15.0359   22.1649 H   0  0  0  0  0  0  0  0  0  0  0  0
   20.0963   15.5351   20.6709 H   0  0  0  0  0  0  0  0  0  0  0  0
   19.1651   14.8333   22.0108 H   0  0  0  0  0  0  0  0  0  0  0  0
  1  2  1  0  0  0  0
  1  3  2  0  0  0  0
  1  4  1  0  0  0  0
  4  5  1  0  0  0  0
  4  6  1  0  0  0  0
  4  7  1  0  0  0  0
  7  8  1  0  0  0  0
  7  9  1  0  0  0  0
  7 10  1  0  0  0  0
 10 11  1  0  0  0  0
 10 12  1  0  0  0  0
 10 13  1  0  0  0  0
 13 14  1  0  0  0  0
 13 15  1  0  0  0  0
 13 16  1  0  0  0  0
 16 17  1  0  0  0  0
 16 18  1  0  0  0  0
 16 19  1  0  0  0  0
 19 20  1  0  0  0  0
 19 21  1  0  0  0  0
 19 22  1  0  0  0  0
M  END
> <VConfSearch Rank>
387

> <Conf_Id>
50

> <Delta U+W>
-0.486

> <U+W>
-53.646

> <U>
7.026

> <W>
-60.672

> <W(PB)>
-62.964

> <W(SA)>
2.292

> <Valence>
7.637

> <Coulomb>
-1.488

> <VdW>
0.877

> <VdW6>
-7.165

> <VdW12>
8.043

> <Bond>
0.134

> <Angle>
2.513

> <Pdih>
4.990

> <Idih>
0.001

> <Tether>
0.000

$$$$
VeraChem MOL file


 22 21  0  0  0  0  0  0  0  0999 V2000     
   20.5554   16.5848   24.9757 C   0  0  0  0  0  0  0  0  0  0  0  0
   20.6578   15.4173   24.6548 O   0  5  0  0  0  0  0  0  0  0  0  0
   19.9896   16.9585   25.9840 O   0  0  0  0  0  0  0  0  0  0  0  0
   21.1522   17.6404   24.0517 C   0  0  0  0  0  0  0  0  0  0  0  0
   22.0415   17.2115   23.5744 H   0  0  0  0  0  0  0  0  0  0  0  0
   21.4893   18.4821   24.6687 H   0  0  0  0  0  0  0  0  0  0  0  0
   20.1526   18.1333   22.9764 C   0  0  0  0  0  0  0  0  0  0  0  0
   19.8179   17.2780   22.3733 H   0  0  0  0  0  0  0  0  0  0  0  0
   19.2641   18.5390   23.4778 H   0  0  0  0  0  0  0  0  0  0  0  0
   20.7821   19.2054   22.0571 C   0  0  0  0  0  0  0  0  0  0  0  0
   21.7101   18.8056   21.6259 H   0  0  0  0  0  0  0  0  0  0  0  0
   21.0690   20.0828   22.6529 H   0  0  0  0  0  0  0  0  0  0  0  0
   19.8549   19.6463   20.8998 C   0  0  0  0  0  0  0  0  0  0  0  0
   20.4230   20.3077   20.2314 H   0  0  0  0  0  0  0  0  0  0  0  0
   19.5709   18.7699   20.3013 H   0  0  0  0  0  0  0  0  0  0  0  0
   18.5841   20.3861   21.3755 C   0  0  0  0  0  0  0  0  0  0  0  0
   18.8661   21.2320   22.0175 H   0  0  0  0  0  0  0  0  0  0  0  0
   17.9611   19.7163   21.9826 H   0  0  0  0  0  0  0  0  0  0  0  0
   17.7516   20.9026   20.1847 C   0  0  0  0  0  0  0  0  0  0  0  0
   17.4326   20.0732   19.5399 H   0  0  0  0  0  0  0  0  0  0  0  0
   18.3321   21.6074   19.5751 H   0  0  0  0  0  0  0  0  0  0  0  0
   16.8517   21.4223   20.5385 H   0  0  0  0  0  0  0  0  0  0  0  0
  1  2  1  0  0  0  0
  1  3  2  0  0  0  0
  1  4  1  0  0  0  0
  4  5  1  0  0  0  0
  4  6  1  0  0  0  0
  4  7  1  0  0  0  0
  7  8  1  0  0  0  0
  7  9  1  0  0  0  0
  7 10  1  0  0  0  0
 10 11  1  0  0  0  0
 10 12  1  0  0  0  0
 10 13  1  0  0  0  0
 13 14  1  0  0  0  0
 13 15  1  0  0  0  0
 13 16  1  0  0  0  0
 16 17  1  0  0  0  0
 16 18  1  0  0  0  0
 16 19  1  0  0  0  0
 19 20  1  0  0  0  0
 19 21  1  0  0  0  0
 19 22  1  0  0  0  0
M  END
> <VConfSearch Rank>
388

> <Conf_Id>
51

> <Delta U+W>
-0.517

> <U+W>
-53.677

> <U>
7.026

> <W>
-60.703

> <W(PB)>
-63.007

> <W(SA)>
2.304

> <Valence>
7.638

> <Coulomb>
-1.488

> <VdW>
0.877

> <VdW6>
-7.165

> <VdW12>
8.042

> <Bond>
0.134

> <Angle>
2.513

> <Pdih>
4.990

> <Idih>
0.001

> <Tether>
0.000

$$$$
VeraChem MOL file


 22 21  0  0  0  0  0  0  0  0999 V2000     
   20.2989   17.9880   19.0163 C   0  0  0  0  0  0  0  0  0  0  0  0
   20.5808   18.9277   18.2991 O   0  5  0  0  0  0  0  0  0  0  0  0
   21.0100   17.0126   19.1570 O   0  0  0  0  0  0  0  0  0  0  0  0
   18.9700   18.0287   19.7655 C   0  0  0  0  0  0  0  0  0  0  0  0
   18.7098   17.0085   20.0729 H   0  0  0  0  0  0  0  0  0  0  0  0
   18.2016   18.3511   19.0530 H   0  0  0  0  0  0  0  0  0  0  0  0
   18.9671   18.9752   20.9939 C   0  0  0  0  0  0  0  0  0  0  0  0
   19.2567   19.9862   20.6750 H   0  0  0  0  0  0  0  0  0  0  0  0
   17.9434   19.0483   21.3852 H   0  0  0  0  0  0  0  0  0  0  0  0
   19.9092   18.4914   22.1191 C   0  0  0  0  0  0  0  0  0  0  0  0
   20.9388   18.4322   21.7398 H   0  0  0  0  0  0  0  0  0  0  0  0
   19.6238   17.4756   22.4251 H   0  0  0  0  0  0  0  0  0  0  0  0
   19.8669   19.4307   23.3436 C   0  0  0  0  0  0  0  0  0  0  0  0
   20.1525   20.4463   23.0367 H   0  0  0  0  0  0  0  0  0  0  0  0
   18.8388   19.4894   23.7264 H   0  0  0  0  0  0  0  0  0  0  0  0
   20.8081   18.9486   24.4673 C   0  0  0  0  0  0  0  0  0  0  0  0
   21.8379   18.8905   24.0884 H   0  0  0  0  0  0  0  0  0  0  0  0
   20.5245   17.9335   24.7781 H   0  0  0  0  0  0  0  0  0  0  0  0
   20.7637   19.8894   25.6881 C   0  0  0  0  0  0  0  0  0  0  0  0
   21.0736   20.9059   25.4121 H   0  0  0  0  0  0  0  0  0  0  0  0
   21.4383   19.5318   26.4768 H   0  0  0  0  0  0  0  0  0  0  0  0
   19.7502   19.9418   26.1070 H   0  0  0  0  0  0  0  0  0  0  0  0
  1  2  1  0  0  0  0
  1  3  2  0  0  0  0
  1  4  1  0  0  0  0
  4  5  1  0  0  0  0
  4  6  1  0  0  0  0
  4  7  1  0  0  0  0
  7  8  1  0  0  0  0
  7  9  1  0  0  0  0
  7 10  1  0  0  0  0
 10 11  1  0  0  0  0
 10 12  1  0  0  0  0
 10 13  1  0  0  0  0
 13 14  1  0  0  0  0
 13 15  1  0  0  0  0
 13 16  1  0  0  0  0
 16 17  1  0  0  0  0
 16 18  1  0  0  0  0
 16 19  1  0  0  0  0
 19 20  1  0  0  0  0
 19 21  1  0  0  0  0
 19 22  1  0  0  0  0
M  END
> <VConfSearch Rank>
389

> <Conf_Id>
43

> <Delta U+W>
-0.129

> <U+W>
-53.289

> <U>
7.937

> <W>
-61.225

> <W(PB)>
-63.523

> <W(SA)>
2.297

> <Valence>
7.358

> <Coulomb>
-0.022

> <VdW>
0.601

> <VdW6>
-7.363

> <VdW12>
7.964

> <Bond>
0.121

> <Angle>
2.425

> <Pdih>
4.811

> <Idih>
0.000

> <Tether>
0.000

$$$$
VeraChem MOL file


 22 21  0  0  0  0  0  0  0  0999 V2000     
   17.0851   18.4759   20.1462 C   0  0  0  0  0  0  0  0  0  0  0  0
   16.1118   17.9844   20.6828 O   0  5  0  0  0  0  0  0  0  0  0  0
   17.7164   17.9264   19.2652 O   0  0  0  0  0  0  0  0  0  0  0  0
   17.5259   19.8673   20.5922 C   0  0  0  0  0  0  0  0  0  0  0  0
   16.6276   20.4933   20.6494 H   0  0  0  0  0  0  0  0  0  0  0  0
   18.1646   20.2991   19.8121 H   0  0  0  0  0  0  0  0  0  0  0  0
   18.2600   19.8889   21.9581 C   0  0  0  0  0  0  0  0  0  0  0  0
   18.4152   20.9327   22.2629 H   0  0  0  0  0  0  0  0  0  0  0  0
   17.6194   19.4280   22.7229 H   0  0  0  0  0  0  0  0  0  0  0  0
   19.6237   19.1637   21.9114 C   0  0  0  0  0  0  0  0  0  0  0  0
   20.2553   19.6196   21.1366 H   0  0  0  0  0  0  0  0  0  0  0  0
   19.4748   18.1137   21.6236 H   0  0  0  0  0  0  0  0  0  0  0  0
   20.3505   19.2246   23.2720 C   0  0  0  0  0  0  0  0  0  0  0  0
   20.5031   20.2736   23.5606 H   0  0  0  0  0  0  0  0  0  0  0  0
   19.7183   18.7685   24.0462 H   0  0  0  0  0  0  0  0  0  0  0  0
   21.7121   18.4999   23.2263 C   0  0  0  0  0  0  0  0  0  0  0  0
   22.3479   18.9545   22.4540 H   0  0  0  0  0  0  0  0  0  0  0  0
   21.5632   17.4496   22.9397 H   0  0  0  0  0  0  0  0  0  0  0  0
   22.4347   18.5622   24.5870 C   0  0  0  0  0  0  0  0  0  0  0  0
   22.6246   19.6021   24.8836 H   0  0  0  0  0  0  0  0  0  0  0  0
   23.4002   18.0424   24.5364 H   0  0  0  0  0  0  0  0  0  0  0  0
   21.8340   18.0858   25.3729 H   0  0  0  0  0  0  0  0  0  0  0  0
  1  2  1  0  0  0  0
  1  3  2  0  0  0  0
  1  4  1  0  0  0  0
  4  5  1  0  0  0  0
  4  6  1  0  0  0  0
  4  7  1  0  0  0  0
  7  8  1  0  0  0  0
  7  9  1  0  0  0  0
  7 10  1  0  0  0  0
 10 11  1  0  0  0  0
 10 12  1  0  0  0  0
 10 13  1  0  0  0  0
 13 14  1  0  0  0  0
 13 15  1  0  0  0  0
 13 16  1  0  0  0  0
 16 17  1  0  0  0  0
 16 18  1  0  0  0  0
 16 19  1  0  0  0  0
 19 20  1  0  0  0  0
 19 21  1  0  0  0  0
 19 22  1  0  0  0  0
M  END
> <VConfSearch Rank>
390

> <Conf_Id>
44

> <Delta U+W>
-0.155

> <U+W>
-53.314

> <U>
7.937

> <W>
-61.252

> <W(PB)>
-63.556

> <W(SA)>
2.304

> <Valence>
7.358

> <Coulomb>
-0.021

> <VdW>
0.600

> <VdW6>
-7.363

> <VdW12>
7.964

> <Bond>
0.121

> <Angle>
2.425

> <Pdih>
4.811

> <Idih>
0.001

> <Tether>
0.000

$$$$
VeraChem MOL file


 22 21  0  0  0  0  0  0  0  0999 V2000     
   16.3416   19.7956   21.7243 C   0  0  0  0  0  0  0  0  0  0  0  0
   15.9375   20.6384   22.5010 O   0  5  0  0  0  0  0  0  0  0  0  0
   15.7636   18.7487   21.5078 O   0  0  0  0  0  0  0  0  0  0  0  0
   17.6359   20.0777   20.9663 C   0  0  0  0  0  0  0  0  0  0  0  0
   17.5758   21.1049   20.5878 H   0  0  0  0  0  0  0  0  0  0  0  0
   17.6801   19.4189   20.0906 H   0  0  0  0  0  0  0  0  0  0  0  0
   18.9188   19.9163   21.8229 C   0  0  0  0  0  0  0  0  0  0  0  0
   19.7730   20.2871   21.2424 H   0  0  0  0  0  0  0  0  0  0  0  0
   18.8420   20.5515   22.7163 H   0  0  0  0  0  0  0  0  0  0  0  0
   19.1716   18.4483   22.2429 C   0  0  0  0  0  0  0  0  0  0  0  0
   19.2901   17.8219   21.3483 H   0  0  0  0  0  0  0  0  0  0  0  0
   18.2872   18.0674   22.7718 H   0  0  0  0  0  0  0  0  0  0  0  0
   20.4017   18.2738   23.1650 C   0  0  0  0  0  0  0  0  0  0  0  0
   20.2828   18.9005   24.0594 H   0  0  0  0  0  0  0  0  0  0  0  0
   20.4273   17.2332   23.5165 H   0  0  0  0  0  0  0  0  0  0  0  0
   21.7441   18.6017   22.4731 C   0  0  0  0  0  0  0  0  0  0  0  0
   21.7728   19.6606   22.1846 H   0  0  0  0  0  0  0  0  0  0  0  0
   21.8381   18.0145   21.5492 H   0  0  0  0  0  0  0  0  0  0  0  0
   22.9432   18.3013   23.3948 C   0  0  0  0  0  0  0  0  0  0  0  0
   22.8888   18.8962   24.3160 H   0  0  0  0  0  0  0  0  0  0  0  0
   23.8882   18.5422   22.8910 H   0  0  0  0  0  0  0  0  0  0  0  0
   22.9690   17.2396   23.6732 H   0  0  0  0  0  0  0  0  0  0  0  0
  1  2  1  0  0  0  0
  1  3  2  0  0  0  0
  1  4  1  0  0  0  0
  4  5  1  0  0  0  0
  4  6  1  0  0  0  0
  4  7  1  0  0  0  0
  7  8  1  0  0  0  0
  7  9  1  0  0  0  0
  7 10  1  0  0  0  0
 10 11  1  0  0  0  0
 10 12  1  0  0  0  0
 10 13  1  0  0  0  0
 13 14  1  0  0  0  0
 13 15  1  0  0  0  0
 13 16  1  0  0  0  0
 16 17  1  0  0  0  0
 16 18  1  0  0  0  0
 16 19  1  0  0  0  0
 19 20  1  0  0  0  0
 19 21  1  0  0  0  0
 19 22  1  0  0  0  0
M  END
> <VConfSearch Rank>
391

> <Conf_Id>
53

> <Delta U+W>
0.723

> <U+W>
-52.436

> <U>
8.587

> <W>
-61.022

> <W(PB)>
-63.285

> <W(SA)>
2.263

> <Valence>
7.933

> <Coulomb>
-0.124

> <VdW>
0.778

> <VdW6>
-7.981

> <VdW12>
8.759

> <Bond>
0.160

> <Angle>
2.698

> <Pdih>
5.074

> <Idih>
0.001

> <Tether>
0.000

$$$$
VeraChem MOL file


 22 21  0  0  0  0  0  0  0  0999 V2000     
   21.1758   21.9155   23.1226 C   0  0  0  0  0  0  0  0  0  0  0  0
   20.8818   22.7343   22.2741 O   0  5  0  0  0  0  0  0  0  0  0  0
   21.8174   22.1810   24.1198 O   0  0  0  0  0  0  0  0  0  0  0  0
   20.6943   20.4810   22.9371 C   0  0  0  0  0  0  0  0  0  0  0  0
   21.4286   19.8121   23.4014 H   0  0  0  0  0  0  0  0  0  0  0  0
   20.6883   20.2702   21.8618 H   0  0  0  0  0  0  0  0  0  0  0  0
   19.2886   20.2368   23.5416 C   0  0  0  0  0  0  0  0  0  0  0  0
   19.2882   20.5856   24.5836 H   0  0  0  0  0  0  0  0  0  0  0  0
   18.5540   20.8570   23.0097 H   0  0  0  0  0  0  0  0  0  0  0  0
   18.8319   18.7564   23.5189 C   0  0  0  0  0  0  0  0  0  0  0  0
   17.8521   18.7053   24.0133 H   0  0  0  0  0  0  0  0  0  0  0  0
   19.5073   18.1437   24.1316 H   0  0  0  0  0  0  0  0  0  0  0  0
   18.6895   18.1462   22.1015 C   0  0  0  0  0  0  0  0  0  0  0  0
   17.8282   17.4641   22.1012 H   0  0  0  0  0  0  0  0  0  0  0  0
   18.4550   18.9344   21.3730 H   0  0  0  0  0  0  0  0  0  0  0  0
   19.9343   17.3480   21.6498 C   0  0  0  0  0  0  0  0  0  0  0  0
   20.1217   16.5283   22.3571 H   0  0  0  0  0  0  0  0  0  0  0  0
   20.8272   17.9843   21.6634 H   0  0  0  0  0  0  0  0  0  0  0  0
   19.7493   16.7657   20.2342 C   0  0  0  0  0  0  0  0  0  0  0  0
   18.8848   16.0900   20.1968 H   0  0  0  0  0  0  0  0  0  0  0  0
   20.6377   16.1965   19.9309 H   0  0  0  0  0  0  0  0  0  0  0  0
   19.5918   17.5654   19.4987 H   0  0  0  0  0  0  0  0  0  0  0  0
  1  2  1  0  0  0  0
  1  3  2  0  0  0  0
  1  4  1  0  0  0  0
  4  5  1  0  0  0  0
  4  6  1  0  0  0  0
  4  7  1  0  0  0  0
  7  8  1  0  0  0  0
  7  9  1  0  0  0  0
  7 10  1  0  0  0  0
 10 11  1  0  0  0  0
 10 12  1  0  0  0  0
 10 13  1  0  0  0  0
 13 14  1  0  0  0  0
 13 15  1  0  0  0  0
 13 16  1  0  0  0  0
 16 17  1  0  0  0  0
 16 18  1  0  0  0  0
 16 19  1  0  0  0  0
 19 20  1  0  0  0  0
 19 21  1  0  0  0  0
 19 22  1  0  0  0  0
M  END
> <VConfSearch Rank>
392

> <Conf_Id>
5

> <Delta U+W>
2.167

> <U+W>
-50.993

> <U>
10.045

> <W>
-61.037

> <W(PB)>
-63.303

> <W(SA)>
2.266

> <Valence>
10.100

> <Coulomb>
-0.883

> <VdW>
0.828

> <VdW6>
-8.177

> <VdW12>
9.005

> <Bond>
0.182

> <Angle>
2.988

> <Pdih>
6.930

> <Idih>
0.001

> <Tether>
0.000

$$$$
VeraChem MOL file


 22 21  0  0  0  0  0  0  0  0999 V2000     
   18.5914   21.9595   21.9014 C   0  0  0  0  0  0  0  0  0  0  0  0
   19.3001   22.5767   21.1311 O   0  5  0  0  0  0  0  0  0  0  0  0
   17.6254   22.4411   22.4596 O   0  0  0  0  0  0  0  0  0  0  0  0
   18.9468   20.5078   22.2019 C   0  0  0  0  0  0  0  0  0  0  0  0
   19.3780   20.0771   21.2912 H   0  0  0  0  0  0  0  0  0  0  0  0
   18.0176   19.9665   22.4162 H   0  0  0  0  0  0  0  0  0  0  0  0
   19.9361   20.3647   23.3859 C   0  0  0  0  0  0  0  0  0  0  0  0
   20.8885   20.8442   23.1209 H   0  0  0  0  0  0  0  0  0  0  0  0
   19.5396   20.9232   24.2452 H   0  0  0  0  0  0  0  0  0  0  0  0
   20.1961   18.9027   23.8281 C   0  0  0  0  0  0  0  0  0  0  0  0
   19.2643   18.4461   24.1889 H   0  0  0  0  0  0  0  0  0  0  0  0
   20.8682   18.9347   24.6966 H   0  0  0  0  0  0  0  0  0  0  0  0
   20.8496   18.0071   22.7452 C   0  0  0  0  0  0  0  0  0  0  0  0
   21.4512   18.6206   22.0606 H   0  0  0  0  0  0  0  0  0  0  0  0
   21.5523   17.3215   23.2383 H   0  0  0  0  0  0  0  0  0  0  0  0
   19.8280   17.1594   21.9525 C   0  0  0  0  0  0  0  0  0  0  0  0
   19.0862   17.8037   21.4657 H   0  0  0  0  0  0  0  0  0  0  0  0
   19.2743   16.5097   22.6442 H   0  0  0  0  0  0  0  0  0  0  0  0
   20.5221   16.2905   20.8845 C   0  0  0  0  0  0  0  0  0  0  0  0
   21.0584   16.9156   20.1584 H   0  0  0  0  0  0  0  0  0  0  0  0
   19.7852   15.6899   20.3356 H   0  0  0  0  0  0  0  0  0  0  0  0
   21.2441   15.6035   21.3450 H   0  0  0  0  0  0  0  0  0  0  0  0
  1  2  1  0  0  0  0
  1  3  2  0  0  0  0
  1  4  1  0  0  0  0
  4  5  1  0  0  0  0
  4  6  1  0  0  0  0
  4  7  1  0  0  0  0
  7  8  1  0  0  0  0
  7  9  1  0  0  0  0
  7 10  1  0  0  0  0
 10 11  1  0  0  0  0
 10 12  1  0  0  0  0
 10 13  1  0  0  0  0
 13 14  1  0  0  0  0
 13 15  1  0  0  0  0
 13 16  1  0  0  0  0
 16 17  1  0  0  0  0
 16 18  1  0  0  0  0
 16 19  1  0  0  0  0
 19 20  1  0  0  0  0
 19 21  1  0  0  0  0
 19 22  1  0  0  0  0
M  END
> <VConfSearch Rank>
393

> <Conf_Id>
6

> <Delta U+W>
2.118

> <U+W>
-51.042

> <U>
10.045

> <W>
-61.086

> <W(PB)>
-63.356

> <W(SA)>
2.270

> <Valence>
10.100

> <Coulomb>
-0.883

> <VdW>
0.828

> <VdW6>
-8.177

> <VdW12>
9.004

> <Bond>
0.182

> <Angle>
2.988

> <Pdih>
6.930

> <Idih>
0.001

> <Tether>
0.000

$$$$
VeraChem MOL file


 22 21  0  0  0  0  0  0  0  0999 V2000     
   17.7794   17.0574   23.0362 C   0  0  0  0  0  0  0  0  0  0  0  0
   18.2853   16.0024   22.7066 O   0  5  0  0  0  0  0  0  0  0  0  0
   16.8854   17.5956   22.4133 O   0  0  0  0  0  0  0  0  0  0  0  0
   18.2410   17.7070   24.3395 C   0  0  0  0  0  0  0  0  0  0  0  0
   17.9823   17.0062   25.1416 H   0  0  0  0  0  0  0  0  0  0  0  0
   17.6510   18.6150   24.5138 H   0  0  0  0  0  0  0  0  0  0  0  0
   19.7600   18.0284   24.4193 C   0  0  0  0  0  0  0  0  0  0  0  0
   20.0290   18.1327   25.4791 H   0  0  0  0  0  0  0  0  0  0  0  0
   20.3434   17.1769   24.0422 H   0  0  0  0  0  0  0  0  0  0  0  0
   20.1880   19.3283   23.6942 C   0  0  0  0  0  0  0  0  0  0  0  0
   21.2374   19.5316   23.9479 H   0  0  0  0  0  0  0  0  0  0  0  0
   19.6070   20.1763   24.0818 H   0  0  0  0  0  0  0  0  0  0  0  0
   20.0525   19.2657   22.1559 C   0  0  0  0  0  0  0  0  0  0  0  0
   20.5476   18.3606   21.7783 H   0  0  0  0  0  0  0  0  0  0  0  0
   18.9937   19.1930   21.8772 H   0  0  0  0  0  0  0  0  0  0  0  0
   20.6638   20.5104   21.4783 C   0  0  0  0  0  0  0  0  0  0  0  0
   21.7276   20.5917   21.7413 H   0  0  0  0  0  0  0  0  0  0  0  0
   20.1708   21.4168   21.8563 H   0  0  0  0  0  0  0  0  0  0  0  0
   20.5194   20.4503   19.9444 C   0  0  0  0  0  0  0  0  0  0  0  0
   21.0307   19.5686   19.5363 H   0  0  0  0  0  0  0  0  0  0  0  0
   20.9579   21.3425   19.4789 H   0  0  0  0  0  0  0  0  0  0  0  0
   19.4625   20.3994   19.6515 H   0  0  0  0  0  0  0  0  0  0  0  0
  1  2  1  0  0  0  0
  1  3  2  0  0  0  0
  1  4  1  0  0  0  0
  4  5  1  0  0  0  0
  4  6  1  0  0  0  0
  4  7  1  0  0  0  0
  7  8  1  0  0  0  0
  7  9  1  0  0  0  0
  7 10  1  0  0  0  0
 10 11  1  0  0  0  0
 10 12  1  0  0  0  0
 10 13  1  0  0  0  0
 13 14  1  0  0  0  0
 13 15  1  0  0  0  0
 13 16  1  0  0  0  0
 16 17  1  0  0  0  0
 16 18  1  0  0  0  0
 16 19  1  0  0  0  0
 19 20  1  0  0  0  0
 19 21  1  0  0  0  0
 19 22  1  0  0  0  0
M  END
> <VConfSearch Rank>
394

> <Conf_Id>
8

> <Delta U+W>
1.886

> <U+W>
-51.274

> <U>
11.237

> <W>
-62.510

> <W(PB)>
-64.777

> <W(SA)>
2.267

> <Valence>
9.029

> <Coulomb>
1.667

> <VdW>
0.540

> <VdW6>
-8.825

> <VdW12>
9.365

> <Bond>
0.186

> <Angle>
3.195

> <Pdih>
5.642

> <Idih>
0.007

> <Tether>
0.000

$$$$
VeraChem MOL file


 22 21  0  0  0  0  0  0  0  0999 V2000     
   17.0870   19.7422   23.9289 C   0  0  0  0  0  0  0  0  0  0  0  0
   16.6583   20.2218   22.8979 O   0  5  0  0  0  0  0  0  0  0  0  0
   17.0348   20.3054   25.0048 O   0  0  0  0  0  0  0  0  0  0  0  0
   17.6972   18.3442   23.8780 C   0  0  0  0  0  0  0  0  0  0  0  0
   17.4195   17.8739   22.9280 H   0  0  0  0  0  0  0  0  0  0  0  0
   17.2195   17.7519   24.6670 H   0  0  0  0  0  0  0  0  0  0  0  0
   19.2376   18.3154   24.0769 C   0  0  0  0  0  0  0  0  0  0  0  0
   19.4703   18.7213   25.0711 H   0  0  0  0  0  0  0  0  0  0  0  0
   19.5808   17.2721   24.0831 H   0  0  0  0  0  0  0  0  0  0  0  0
   20.0398   19.1095   23.0164 C   0  0  0  0  0  0  0  0  0  0  0  0
   21.0964   19.0966   23.3120 H   0  0  0  0  0  0  0  0  0  0  0  0
   19.7279   20.1629   23.0274 H   0  0  0  0  0  0  0  0  0  0  0  0
   19.8977   18.5411   21.5832 C   0  0  0  0  0  0  0  0  0  0  0  0
   20.1899   17.4823   21.5719 H   0  0  0  0  0  0  0  0  0  0  0  0
   18.8430   18.5790   21.2813 H   0  0  0  0  0  0  0  0  0  0  0  0
   20.7225   19.3174   20.5300 C   0  0  0  0  0  0  0  0  0  0  0  0
   20.4430   20.3799   20.5501 H   0  0  0  0  0  0  0  0  0  0  0  0
   20.4552   18.9456   19.5312 H   0  0  0  0  0  0  0  0  0  0  0  0
   22.2487   19.1760   20.7182 C   0  0  0  0  0  0  0  0  0  0  0  0
   22.5837   19.6445   21.6518 H   0  0  0  0  0  0  0  0  0  0  0  0
   22.7834   19.6634   19.8927 H   0  0  0  0  0  0  0  0  0  0  0  0
   22.5462   18.1195   20.7362 H   0  0  0  0  0  0  0  0  0  0  0  0
  1  2  1  0  0  0  0
  1  3  2  0  0  0  0
  1  4  1  0  0  0  0
  4  5  1  0  0  0  0
  4  6  1  0  0  0  0
  4  7  1  0  0  0  0
  7  8  1  0  0  0  0
  7  9  1  0  0  0  0
  7 10  1  0  0  0  0
 10 11  1  0  0  0  0
 10 12  1  0  0  0  0
 10 13  1  0  0  0  0
 13 14  1  0  0  0  0
 13 15  1  0  0  0  0
 13 16  1  0  0  0  0
 16 17  1  0  0  0  0
 16 18  1  0  0  0  0
 16 19  1  0  0  0  0
 19 20  1  0  0  0  0
 19 21  1  0  0  0  0
 19 22  1  0  0  0  0
M  END
> <VConfSearch Rank>
395

> <Conf_Id>
93

> <Delta U+W>
1.836

> <U+W>
-51.323

> <U>
10.427

> <W>
-61.751

> <W(PB)>
-63.980

> <W(SA)>
2.230

> <Valence>
8.446

> <Coulomb>
1.306

> <VdW>
0.676

> <VdW6>
-8.928

> <VdW12>
9.604

> <Bond>
0.209

> <Angle>
3.066

> <Pdih>
5.170

> <Idih>
0.001

> <Tether>
0.000

$$$$
VeraChem MOL file


 22 21  0  0  0  0  0  0  0  0999 V2000     
   17.2650   19.0448   20.5628 C   0  0  0  0  0  0  0  0  0  0  0  0
   16.1783   19.5344   20.8013 O   0  5  0  0  0  0  0  0  0  0  0  0
   17.4431   17.8548   20.3929 O   0  0  0  0  0  0  0  0  0  0  0  0
   18.4642   19.9809   20.4408 C   0  0  0  0  0  0  0  0  0  0  0  0
   18.1794   20.7866   19.7541 H   0  0  0  0  0  0  0  0  0  0  0  0
   19.2851   19.4393   19.9576 H   0  0  0  0  0  0  0  0  0  0  0  0
   18.9294   20.5969   21.7888 C   0  0  0  0  0  0  0  0  0  0  0  0
   19.7545   21.2968   21.5996 H   0  0  0  0  0  0  0  0  0  0  0  0
   18.1069   21.1965   22.2027 H   0  0  0  0  0  0  0  0  0  0  0  0
   19.3730   19.5618   22.8520 C   0  0  0  0  0  0  0  0  0  0  0  0
   18.5417   18.8786   23.0741 H   0  0  0  0  0  0  0  0  0  0  0  0
   19.5859   20.1027   23.7827 H   0  0  0  0  0  0  0  0  0  0  0  0
   20.6194   18.7439   22.4336 C   0  0  0  0  0  0  0  0  0  0  0  0
   20.3944   18.1845   21.5164 H   0  0  0  0  0  0  0  0  0  0  0  0
   21.4471   19.4243   22.1917 H   0  0  0  0  0  0  0  0  0  0  0  0
   21.0786   17.7311   23.5085 C   0  0  0  0  0  0  0  0  0  0  0  0
   21.8681   17.0984   23.0801 H   0  0  0  0  0  0  0  0  0  0  0  0
   20.2475   17.0592   23.7637 H   0  0  0  0  0  0  0  0  0  0  0  0
   21.6215   18.3991   24.7906 C   0  0  0  0  0  0  0  0  0  0  0  0
   20.8339   18.9463   25.3232 H   0  0  0  0  0  0  0  0  0  0  0  0
   22.4311   19.1021   24.5548 H   0  0  0  0  0  0  0  0  0  0  0  0
   22.0213   17.6419   25.4774 H   0  0  0  0  0  0  0  0  0  0  0  0
  1  2  1  0  0  0  0
  1  3  2  0  0  0  0
  1  4  1  0  0  0  0
  4  5  1  0  0  0  0
  4  6  1  0  0  0  0
  4  7  1  0  0  0  0
  7  8  1  0  0  0  0
  7  9  1  0  0  0  0
  7 10  1  0  0  0  0
 10 11  1  0  0  0  0
 10 12  1  0  0  0  0
 10 13  1  0  0  0  0
 13 14  1  0  0  0  0
 13 15  1  0  0  0  0
 13 16  1  0  0  0  0
 16 17  1  0  0  0  0
 16 18  1  0  0  0  0
 16 19  1  0  0  0  0
 19 20  1  0  0  0  0
 19 21  1  0  0  0  0
 19 22  1  0  0  0  0
M  END
> <VConfSearch Rank>
396

> <Conf_Id>
70

> <Delta U+W>
1.803

> <U+W>
-51.356

> <U>
10.428

> <W>
-61.784

> <W(PB)>
-64.014

> <W(SA)>
2.230

> <Valence>
8.445

> <Coulomb>
1.306

> <VdW>
0.676

> <VdW6>
-8.929

> <VdW12>
9.605

> <Bond>
0.209

> <Angle>
3.066

> <Pdih>
5.170

> <Idih>
0.001

> <Tether>
0.000

$$$$
VeraChem MOL file


 22 21  0  0  0  0  0  0  0  0999 V2000     
   18.9759   16.1201   23.8524 C   0  0  0  0  0  0  0  0  0  0  0  0
   19.5114   16.2059   24.9399 O   0  5  0  0  0  0  0  0  0  0  0  0
   19.2007   15.2258   23.0609 O   0  0  0  0  0  0  0  0  0  0  0  0
   17.9497   17.1832   23.4705 C   0  0  0  0  0  0  0  0  0  0  0  0
   17.2974   17.3367   24.3382 H   0  0  0  0  0  0  0  0  0  0  0  0
   17.3187   16.7875   22.6654 H   0  0  0  0  0  0  0  0  0  0  0  0
   18.5744   18.5376   23.0460 C   0  0  0  0  0  0  0  0  0  0  0  0
   17.7717   19.2760   22.9171 H   0  0  0  0  0  0  0  0  0  0  0  0
   19.2156   18.9035   23.8588 H   0  0  0  0  0  0  0  0  0  0  0  0
   19.3849   18.4296   21.7322 C   0  0  0  0  0  0  0  0  0  0  0  0
   18.7496   17.9802   20.9569 H   0  0  0  0  0  0  0  0  0  0  0  0
   20.2329   17.7451   21.8720 H   0  0  0  0  0  0  0  0  0  0  0  0
   19.9027   19.7923   21.2140 C   0  0  0  0  0  0  0  0  0  0  0  0
   20.3548   19.6392   20.2246 H   0  0  0  0  0  0  0  0  0  0  0  0
   19.0557   20.4761   21.0660 H   0  0  0  0  0  0  0  0  0  0  0  0
   20.9461   20.4490   22.1459 C   0  0  0  0  0  0  0  0  0  0  0  0
   21.7677   19.7449   22.3364 H   0  0  0  0  0  0  0  0  0  0  0  0
   20.4918   20.6820   23.1178 H   0  0  0  0  0  0  0  0  0  0  0  0
   21.5140   21.7455   21.5341 C   0  0  0  0  0  0  0  0  0  0  0  0
   22.0112   21.5436   20.5764 H   0  0  0  0  0  0  0  0  0  0  0  0
   22.2505   22.2011   22.2087 H   0  0  0  0  0  0  0  0  0  0  0  0
   20.7160   22.4788   21.3584 H   0  0  0  0  0  0  0  0  0  0  0  0
  1  2  1  0  0  0  0
  1  3  2  0  0  0  0
  1  4  1  0  0  0  0
  4  5  1  0  0  0  0
  4  6  1  0  0  0  0
  4  7  1  0  0  0  0
  7  8  1  0  0  0  0
  7  9  1  0  0  0  0
  7 10  1  0  0  0  0
 10 11  1  0  0  0  0
 10 12  1  0  0  0  0
 10 13  1  0  0  0  0
 13 14  1  0  0  0  0
 13 15  1  0  0  0  0
 13 16  1  0  0  0  0
 16 17  1  0  0  0  0
 16 18  1  0  0  0  0
 16 19  1  0  0  0  0
 19 20  1  0  0  0  0
 19 21  1  0  0  0  0
 19 22  1  0  0  0  0
M  END
> <VConfSearch Rank>
397

> <Conf_Id>
85

> <Delta U+W>
0.707

> <U+W>
-52.452

> <U>
8.925

> <W>
-61.378

> <W(PB)>
-63.661

> <W(SA)>
2.283

> <Valence>
7.881

> <Coulomb>
0.349

> <VdW>
0.695

> <VdW6>
-8.049

> <VdW12>
8.743

> <Bond>
0.156

> <Angle>
2.660

> <Pdih>
5.064

> <Idih>
0.001

> <Tether>
0.000

$$$$
VeraChem MOL file


 22 21  0  0  0  0  0  0  0  0999 V2000     
   18.7948   16.0677   23.8276 C   0  0  0  0  0  0  0  0  0  0  0  0
   19.5610   15.1391   23.6610 O   0  5  0  0  0  0  0  0  0  0  0  0
   18.3099   16.3539   24.9046 O   0  0  0  0  0  0  0  0  0  0  0  0
   18.4007   16.9070   22.6153 C   0  0  0  0  0  0  0  0  0  0  0  0
   17.3123   17.0346   22.6463 H   0  0  0  0  0  0  0  0  0  0  0  0
   18.6279   16.3380   21.7057 H   0  0  0  0  0  0  0  0  0  0  0  0
   19.0828   18.2989   22.5605 C   0  0  0  0  0  0  0  0  0  0  0  0
   18.6207   18.8783   21.7514 H   0  0  0  0  0  0  0  0  0  0  0  0
   18.8862   18.8390   23.4969 H   0  0  0  0  0  0  0  0  0  0  0  0
   20.6069   18.2057   22.3165 C   0  0  0  0  0  0  0  0  0  0  0  0
   20.7920   17.7413   21.3384 H   0  0  0  0  0  0  0  0  0  0  0  0
   21.0514   17.5340   23.0636 H   0  0  0  0  0  0  0  0  0  0  0  0
   21.3473   19.5647   22.3902 C   0  0  0  0  0  0  0  0  0  0  0  0
   21.2459   19.9945   23.3961 H   0  0  0  0  0  0  0  0  0  0  0  0
   22.4193   19.3635   22.2589 H   0  0  0  0  0  0  0  0  0  0  0  0
   20.9165   20.5977   21.3191 C   0  0  0  0  0  0  0  0  0  0  0  0
   20.5444   20.0840   20.4219 H   0  0  0  0  0  0  0  0  0  0  0  0
   21.8028   21.1639   21.0010 H   0  0  0  0  0  0  0  0  0  0  0  0
   19.8657   21.6065   21.8339 C   0  0  0  0  0  0  0  0  0  0  0  0
   18.9443   21.1082   22.1558 H   0  0  0  0  0  0  0  0  0  0  0  0
   19.6017   22.3221   21.0446 H   0  0  0  0  0  0  0  0  0  0  0  0
   20.2574   22.1767   22.6863 H   0  0  0  0  0  0  0  0  0  0  0  0
  1  2  1  0  0  0  0
  1  3  2  0  0  0  0
  1  4  1  0  0  0  0
  4  5  1  0  0  0  0
  4  6  1  0  0  0  0
  4  7  1  0  0  0  0
  7  8  1  0  0  0  0
  7  9  1  0  0  0  0
  7 10  1  0  0  0  0
 10 11  1  0  0  0  0
 10 12  1  0  0  0  0
 10 13  1  0  0  0  0
 13 14  1  0  0  0  0
 13 15  1  0  0  0  0
 13 16  1  0  0  0  0
 16 17  1  0  0  0  0
 16 18  1  0  0  0  0
 16 19  1  0  0  0  0
 19 20  1  0  0  0  0
 19 21  1  0  0  0  0
 19 22  1  0  0  0  0
M  END
> <VConfSearch Rank>
398

> <Conf_Id>
82

> <Delta U+W>
3.438

> <U+W>
-49.721

> <U>
11.773

> <W>
-61.495

> <W(PB)>
-63.749

> <W(SA)>
2.254

> <Valence>
10.419

> <Coulomb>
0.565

> <VdW>
0.789

> <VdW6>
-8.847

> <VdW12>
9.636

> <Bond>
0.200

> <Angle>
3.187

> <Pdih>
7.032

> <Idih>
0.001

> <Tether>
0.000

$$$$
VeraChem MOL file


 22 21  0  0  0  0  0  0  0  0999 V2000     
   19.1067   15.7276   22.9958 C   0  0  0  0  0  0  0  0  0  0  0  0
   17.8978   15.6256   22.9252 O   0  5  0  0  0  0  0  0  0  0  0  0
   19.8786   14.9411   22.4833 O   0  0  0  0  0  0  0  0  0  0  0  0
   19.6850   16.8947   23.7913 C   0  0  0  0  0  0  0  0  0  0  0  0
   20.7257   16.6630   24.0482 H   0  0  0  0  0  0  0  0  0  0  0  0
   19.1306   16.9530   24.7354 H   0  0  0  0  0  0  0  0  0  0  0  0
   19.6053   18.2603   23.0602 C   0  0  0  0  0  0  0  0  0  0  0  0
   18.5648   18.4575   22.7673 H   0  0  0  0  0  0  0  0  0  0  0  0
   19.8959   19.0478   23.7667 H   0  0  0  0  0  0  0  0  0  0  0  0
   20.5232   18.3244   21.8174 C   0  0  0  0  0  0  0  0  0  0  0  0
   20.3053   17.4689   21.1635 H   0  0  0  0  0  0  0  0  0  0  0  0
   21.5700   18.2116   22.1308 H   0  0  0  0  0  0  0  0  0  0  0  0
   20.3723   19.6199   20.9811 C   0  0  0  0  0  0  0  0  0  0  0  0
   21.0263   19.5238   20.1036 H   0  0  0  0  0  0  0  0  0  0  0  0
   19.3506   19.6950   20.5844 H   0  0  0  0  0  0  0  0  0  0  0  0
   20.7557   20.9224   21.7270 C   0  0  0  0  0  0  0  0  0  0  0  0
   21.2446   21.6030   21.0163 H   0  0  0  0  0  0  0  0  0  0  0  0
   21.4997   20.7102   22.5072 H   0  0  0  0  0  0  0  0  0  0  0  0
   19.5393   21.6582   22.3320 C   0  0  0  0  0  0  0  0  0  0  0  0
   18.8242   21.9394   21.5480 H   0  0  0  0  0  0  0  0  0  0  0  0
   19.8600   22.5775   22.8388 H   0  0  0  0  0  0  0  0  0  0  0  0
   19.0105   21.0389   23.0652 H   0  0  0  0  0  0  0  0  0  0  0  0
  1  2  1  0  0  0  0
  1  3  2  0  0  0  0
  1  4  1  0  0  0  0
  4  5  1  0  0  0  0
  4  6  1  0  0  0  0
  4  7  1  0  0  0  0
  7  8  1  0  0  0  0
  7  9  1  0  0  0  0
  7 10  1  0  0  0  0
 10 11  1  0  0  0  0
 10 12  1  0  0  0  0
 10 13  1  0  0  0  0
 13 14  1  0  0  0  0
 13 15  1  0  0  0  0
 13 16  1  0  0  0  0
 16 17  1  0  0  0  0
 16 18  1  0  0  0  0
 16 19  1  0  0  0  0
 19 20  1  0  0  0  0
 19 21  1  0  0  0  0
 19 22  1  0  0  0  0
M  END
> <VConfSearch Rank>
399

> <Conf_Id>
94

> <Delta U+W>
3.471

> <U+W>
-49.688

> <U>
11.773

> <W>
-61.461

> <W(PB)>
-63.710

> <W(SA)>
2.248

> <Valence>
10.419

> <Coulomb>
0.566

> <VdW>
0.789

> <VdW6>
-8.847

> <VdW12>
9.636

> <Bond>
0.200

> <Angle>
3.187

> <Pdih>
7.032

> <Idih>
0.001

> <Tether>
0.000

$$$$
VeraChem MOL file


 22 21  0  0  0  0  0  0  0  0999 V2000     
   22.6729   18.4117   23.9293 C   0  0  0  0  0  0  0  0  0  0  0  0
   23.8164   18.7700   23.7273 O   0  5  0  0  0  0  0  0  0  0  0  0
   22.3817   17.3499   24.4434 O   0  0  0  0  0  0  0  0  0  0  0  0
   21.5416   19.3371   23.4962 C   0  0  0  0  0  0  0  0  0  0  0  0
   21.8875   20.3720   23.6034 H   0  0  0  0  0  0  0  0  0  0  0  0
   20.7097   19.1973   24.1959 H   0  0  0  0  0  0  0  0  0  0  0  0
   21.0771   19.0764   22.0399 C   0  0  0  0  0  0  0  0  0  0  0  0
   21.9486   19.1430   21.3742 H   0  0  0  0  0  0  0  0  0  0  0  0
   20.7055   18.0469   21.9514 H   0  0  0  0  0  0  0  0  0  0  0  0
   20.0009   20.0754   21.5461 C   0  0  0  0  0  0  0  0  0  0  0  0
   19.7674   19.8555   20.4960 H   0  0  0  0  0  0  0  0  0  0  0  0
   20.4284   21.0872   21.5496 H   0  0  0  0  0  0  0  0  0  0  0  0
   18.6864   20.0909   22.3702 C   0  0  0  0  0  0  0  0  0  0  0  0
   18.8947   20.4690   23.3797 H   0  0  0  0  0  0  0  0  0  0  0  0
   17.9984   20.8179   21.9178 H   0  0  0  0  0  0  0  0  0  0  0  0
   17.9643   18.7259   22.4848 C   0  0  0  0  0  0  0  0  0  0  0  0
   17.0687   18.8546   23.1079 H   0  0  0  0  0  0  0  0  0  0  0  0
   18.6012   18.0043   23.0137 H   0  0  0  0  0  0  0  0  0  0  0  0
   17.5400   18.1439   21.1191 C   0  0  0  0  0  0  0  0  0  0  0  0
   16.9151   18.8566   20.5656 H   0  0  0  0  0  0  0  0  0  0  0  0
   16.9611   17.2217   21.2575 H   0  0  0  0  0  0  0  0  0  0  0  0
   18.4134   17.8992   20.5016 H   0  0  0  0  0  0  0  0  0  0  0  0
  1  2  1  0  0  0  0
  1  3  2  0  0  0  0
  1  4  1  0  0  0  0
  4  5  1  0  0  0  0
  4  6  1  0  0  0  0
  4  7  1  0  0  0  0
  7  8  1  0  0  0  0
  7  9  1  0  0  0  0
  7 10  1  0  0  0  0
 10 11  1  0  0  0  0
 10 12  1  0  0  0  0
 10 13  1  0  0  0  0
 13 14  1  0  0  0  0
 13 15  1  0  0  0  0
 13 16  1  0  0  0  0
 16 17  1  0  0  0  0
 16 18  1  0  0  0  0
 16 19  1  0  0  0  0
 19 20  1  0  0  0  0
 19 21  1  0  0  0  0
 19 22  1  0  0  0  0
M  END
> <VConfSearch Rank>
400

> <Conf_Id>
56

> <Delta U+W>
0.853

> <U+W>
-52.307

> <U>
8.874

> <W>
-61.181

> <W(PB)>
-63.413

> <W(SA)>
2.232

> <Valence>
8.479

> <Coulomb>
-0.357

> <VdW>
0.753

> <VdW6>
-9.081

> <VdW12>
9.833

> <Bond>
0.221

> <Angle>
3.208

> <Pdih>
5.050

> <Idih>
0.000

> <Tether>
0.000

$$$$
VeraChem MOL file


 22 21  0  0  0  0  0  0  0  0999 V2000     
   22.5145   19.9613   25.0160 C   0  0  0  0  0  0  0  0  0  0  0  0
   21.9882   21.0380   25.2212 O   0  5  0  0  0  0  0  0  0  0  0  0
   23.5011   19.5805   25.6138 O   0  0  0  0  0  0  0  0  0  0  0  0
   21.9304   19.0197   23.9616 C   0  0  0  0  0  0  0  0  0  0  0  0
   21.6962   18.0730   24.4624 H   0  0  0  0  0  0  0  0  0  0  0  0
   22.7239   18.8105   23.2345 H   0  0  0  0  0  0  0  0  0  0  0  0
   20.6709   19.5490   23.2254 C   0  0  0  0  0  0  0  0  0  0  0  0
   19.8821   19.7625   23.9600 H   0  0  0  0  0  0  0  0  0  0  0  0
   20.9107   20.5006   22.7309 H   0  0  0  0  0  0  0  0  0  0  0  0
   20.1488   18.5382   22.1813 C   0  0  0  0  0  0  0  0  0  0  0  0
   19.9097   17.5878   22.6780 H   0  0  0  0  0  0  0  0  0  0  0  0
   20.9391   18.3263   21.4481 H   0  0  0  0  0  0  0  0  0  0  0  0
   18.8960   19.0667   21.4502 C   0  0  0  0  0  0  0  0  0  0  0  0
   18.1054   19.2789   22.1830 H   0  0  0  0  0  0  0  0  0  0  0  0
   19.1346   20.0172   20.9533 H   0  0  0  0  0  0  0  0  0  0  0  0
   18.3736   18.0571   20.4067 C   0  0  0  0  0  0  0  0  0  0  0  0
   18.1319   17.1056   20.9005 H   0  0  0  0  0  0  0  0  0  0  0  0
   19.1612   17.8439   19.6707 H   0  0  0  0  0  0  0  0  0  0  0  0
   17.1227   18.5886   19.6788 C   0  0  0  0  0  0  0  0  0  0  0  0
   16.3073   18.7808   20.3885 H   0  0  0  0  0  0  0  0  0  0  0  0
   16.7649   17.8586   18.9411 H   0  0  0  0  0  0  0  0  0  0  0  0
   17.3443   19.5246   19.1495 H   0  0  0  0  0  0  0  0  0  0  0  0
  1  2  1  0  0  0  0
  1  3  2  0  0  0  0
  1  4  1  0  0  0  0
  4  5  1  0  0  0  0
  4  6  1  0  0  0  0
  4  7  1  0  0  0  0
  7  8  1  0  0  0  0
  7  9  1  0  0  0  0
  7 10  1  0  0  0  0
 10 11  1  0  0  0  0
 10 12  1  0  0  0  0
 10 13  1  0  0  0  0
 13 14  1  0  0  0  0
 13 15  1  0  0  0  0
 13 16  1  0  0  0  0
 16 17  1  0  0  0  0
 16 18  1  0  0  0  0
 16 19  1  0  0  0  0
 19 20  1  0  0  0  0
 19 21  1  0  0  0  0
 19 22  1  0  0  0  0
M  END
> <VConfSearch Rank>
401

> <Conf_Id>
0

> <Delta U+W>
0.000

> <U+W>
-53.159

> <U>
6.763

> <W>
-59.922

> <W(PB)>
-62.256

> <W(SA)>
2.334

> <Valence>
7.600

> <Coulomb>
-2.139

> <VdW>
1.302

> <VdW6>
-6.786

> <VdW12>
8.088

> <Bond>
0.134

> <Angle>
2.720

> <Pdih>
4.746

> <Idih>
0.000

> <Tether>
0.000

$$$$
VeraChem MOL file


 22 21  0  0  0  0  0  0  0  0999 V2000     
   17.2653   21.2673   24.2969 C   0  0  0  0  0  0  0  0  0  0  0  0
   16.5072   20.6421   25.0117 O   0  5  0  0  0  0  0  0  0  0  0  0
   16.9738   22.3196   23.7639 O   0  0  0  0  0  0  0  0  0  0  0  0
   18.6512   20.6880   24.0364 C   0  0  0  0  0  0  0  0  0  0  0  0
   18.9656   20.1401   24.9328 H   0  0  0  0  0  0  0  0  0  0  0  0
   19.3502   21.5228   23.9048 H   0  0  0  0  0  0  0  0  0  0  0  0
   18.6915   19.7572   22.7995 C   0  0  0  0  0  0  0  0  0  0  0  0
   17.9771   18.9343   22.9412 H   0  0  0  0  0  0  0  0  0  0  0  0
   18.3617   20.3169   21.9132 H   0  0  0  0  0  0  0  0  0  0  0  0
   20.1046   19.1840   22.5572 C   0  0  0  0  0  0  0  0  0  0  0  0
   20.4317   18.6261   23.4454 H   0  0  0  0  0  0  0  0  0  0  0  0
   20.8164   20.0091   22.4172 H   0  0  0  0  0  0  0  0  0  0  0  0
   20.1417   18.2565   21.3236 C   0  0  0  0  0  0  0  0  0  0  0  0
   19.4299   17.4312   21.4632 H   0  0  0  0  0  0  0  0  0  0  0  0
   19.8146   18.8140   20.4351 H   0  0  0  0  0  0  0  0  0  0  0  0
   21.5536   17.6832   21.0808 C   0  0  0  0  0  0  0  0  0  0  0  0
   21.8835   17.1231   21.9668 H   0  0  0  0  0  0  0  0  0  0  0  0
   22.2681   18.5059   20.9388 H   0  0  0  0  0  0  0  0  0  0  0  0
   21.5864   16.7576   19.8481 C   0  0  0  0  0  0  0  0  0  0  0  0
   21.2909   17.3009   18.9410 H   0  0  0  0  0  0  0  0  0  0  0  0
   20.9032   15.9079   19.9767 H   0  0  0  0  0  0  0  0  0  0  0  0
   22.5971   16.3591   19.6904 H   0  0  0  0  0  0  0  0  0  0  0  0
  1  2  1  0  0  0  0
  1  3  2  0  0  0  0
  1  4  1  0  0  0  0
  4  5  1  0  0  0  0
  4  6  1  0  0  0  0
  4  7  1  0  0  0  0
  7  8  1  0  0  0  0
  7  9  1  0  0  0  0
  7 10  1  0  0  0  0
 10 11  1  0  0  0  0
 10 12  1  0  0  0  0
 10 13  1  0  0  0  0
 13 14  1  0  0  0  0
 13 15  1  0  0  0  0
 13 16  1  0  0  0  0
 16 17  1  0  0  0  0
 16 18  1  0  0  0  0
 16 19  1  0  0  0  0
 19 20  1  0  0  0  0
 19 21  1  0  0  0  0
 19 22  1  0  0  0  0
M  END
> <VConfSearch Rank>
402

> <Conf_Id>
10

> <Delta U+W>
-1.291

> <U+W>
-54.451

> <U>
5.779

> <W>
-60.230

> <W(PB)>
-62.557

> <W(SA)>
2.328

> <Valence>
7.101

> <Coulomb>
-2.079

> <VdW>
0.757

> <VdW6>
-6.496

> <VdW12>
7.253

> <Bond>
0.100

> <Angle>
2.262

> <Pdih>
4.738

> <Idih>
0.001

> <Tether>
0.000

$$$$
VeraChem MOL file


 22 21  0  0  0  0  0  0  0  0999 V2000     
   21.9746   15.9003   23.4496 C   0  0  0  0  0  0  0  0  0  0  0  0
   22.2312   15.1142   22.5593 O   0  5  0  0  0  0  0  0  0  0  0  0
   22.6640   16.0441   24.4398 O   0  0  0  0  0  0  0  0  0  0  0  0
   20.7301   16.7692   23.3064 C   0  0  0  0  0  0  0  0  0  0  0  0
   20.3298   16.9592   24.3095 H   0  0  0  0  0  0  0  0  0  0  0  0
   19.9739   16.1937   22.7591 H   0  0  0  0  0  0  0  0  0  0  0  0
   21.0113   18.1082   22.5809 C   0  0  0  0  0  0  0  0  0  0  0  0
   21.7798   18.6658   23.1340 H   0  0  0  0  0  0  0  0  0  0  0  0
   21.4231   17.9010   21.5834 H   0  0  0  0  0  0  0  0  0  0  0  0
   19.7362   18.9691   22.4486 C   0  0  0  0  0  0  0  0  0  0  0  0
   19.3280   19.1763   23.4472 H   0  0  0  0  0  0  0  0  0  0  0  0
   18.9733   18.4003   21.9012 H   0  0  0  0  0  0  0  0  0  0  0  0
   20.0214   20.3028   21.7205 C   0  0  0  0  0  0  0  0  0  0  0  0
   20.8353   20.8267   22.2400 H   0  0  0  0  0  0  0  0  0  0  0  0
   20.3819   20.0994   20.7028 H   0  0  0  0  0  0  0  0  0  0  0  0
   18.7950   21.2426   21.6563 C   0  0  0  0  0  0  0  0  0  0  0  0
   19.1112   22.2061   21.2331 H   0  0  0  0  0  0  0  0  0  0  0  0
   18.4354   21.4534   22.6729 H   0  0  0  0  0  0  0  0  0  0  0  0
   17.6380   20.6805   20.8021 C   0  0  0  0  0  0  0  0  0  0  0  0
   16.8312   21.4197   20.7150 H   0  0  0  0  0  0  0  0  0  0  0  0
   17.2114   19.7751   21.2514 H   0  0  0  0  0  0  0  0  0  0  0  0
   17.9814   20.4340   19.7890 H   0  0  0  0  0  0  0  0  0  0  0  0
  1  2  1  0  0  0  0
  1  3  2  0  0  0  0
  1  4  1  0  0  0  0
  4  5  1  0  0  0  0
  4  6  1  0  0  0  0
  4  7  1  0  0  0  0
  7  8  1  0  0  0  0
  7  9  1  0  0  0  0
  7 10  1  0  0  0  0
 10 11  1  0  0  0  0
 10 12  1  0  0  0  0
 10 13  1  0  0  0  0
 13 14  1  0  0  0  0
 13 15  1  0  0  0  0
 13 16  1  0  0  0  0
 16 17  1  0  0  0  0
 16 18  1  0  0  0  0
 16 19  1  0  0  0  0
 19 20  1  0  0  0  0
 19 21  1  0  0  0  0
 19 22  1  0  0  0  0
M  END
> <VConfSearch Rank>
403

> <Conf_Id>
37

> <Delta U+W>
-0.345

> <U+W>
-53.504

> <U>
6.751

> <W>
-60.255

> <W(PB)>
-62.592

> <W(SA)>
2.336

> <Valence>
7.602

> <Coulomb>
-1.744

> <VdW>
0.894

> <VdW6>
-7.110

> <VdW12>
8.004

> <Bond>
0.131

> <Angle>
2.489

> <Pdih>
4.982

> <Idih>
0.001

> <Tether>
0.000

$$$$
VeraChem MOL file


 22 21  0  0  0  0  0  0  0  0999 V2000     
   22.3236   19.9364   19.4044 C   0  0  0  0  0  0  0  0  0  0  0  0
   23.1543   20.7438   19.7714 O   0  5  0  0  0  0  0  0  0  0  0  0
   21.9677   19.8149   18.2490 O   0  0  0  0  0  0  0  0  0  0  0  0
   21.6766   19.0411   20.4551 C   0  0  0  0  0  0  0  0  0  0  0  0
   22.4179   18.8453   21.2392 H   0  0  0  0  0  0  0  0  0  0  0  0
   21.4405   18.0791   19.9845 H   0  0  0  0  0  0  0  0  0  0  0  0
   20.3988   19.6626   21.0710 C   0  0  0  0  0  0  0  0  0  0  0  0
   20.6494   20.6304   21.5271 H   0  0  0  0  0  0  0  0  0  0  0  0
   19.6726   19.8650   20.2715 H   0  0  0  0  0  0  0  0  0  0  0  0
   19.7629   18.7372   22.1311 C   0  0  0  0  0  0  0  0  0  0  0  0
   20.4986   18.5358   22.9205 H   0  0  0  0  0  0  0  0  0  0  0  0
   19.5114   17.7715   21.6718 H   0  0  0  0  0  0  0  0  0  0  0  0
   18.4900   19.3638   22.7455 C   0  0  0  0  0  0  0  0  0  0  0  0
   18.7472   20.3053   23.2499 H   0  0  0  0  0  0  0  0  0  0  0  0
   17.7937   19.6242   21.9367 H   0  0  0  0  0  0  0  0  0  0  0  0
   17.7616   18.4278   23.7378 C   0  0  0  0  0  0  0  0  0  0  0  0
   17.4970   17.4874   23.2350 H   0  0  0  0  0  0  0  0  0  0  0  0
   16.8140   18.8980   24.0348 H   0  0  0  0  0  0  0  0  0  0  0  0
   18.5850   18.1238   25.0082 C   0  0  0  0  0  0  0  0  0  0  0  0
   18.8869   19.0513   25.5121 H   0  0  0  0  0  0  0  0  0  0  0  0
   19.4896   17.5498   24.7717 H   0  0  0  0  0  0  0  0  0  0  0  0
   17.9920   17.5317   25.7172 H   0  0  0  0  0  0  0  0  0  0  0  0
  1  2  1  0  0  0  0
  1  3  2  0  0  0  0
  1  4  1  0  0  0  0
  4  5  1  0  0  0  0
  4  6  1  0  0  0  0
  4  7  1  0  0  0  0
  7  8  1  0  0  0  0
  7  9  1  0  0  0  0
  7 10  1  0  0  0  0
 10 11  1  0  0  0  0
 10 12  1  0  0  0  0
 10 13  1  0  0  0  0
 13 14  1  0  0  0  0
 13 15  1  0  0  0  0
 13 16  1  0  0  0  0
 16 17  1  0  0  0  0
 16 18  1  0  0  0  0
 16 19  1  0  0  0  0
 19 20  1  0  0  0  0
 19 21  1  0  0  0  0
 19 22  1  0  0  0  0
M  END
> <VConfSearch Rank>
404

> <Conf_Id>
38

> <Delta U+W>
-0.439

> <U+W>
-53.598

> <U>
6.751

> <W>
-60.350

> <W(PB)>
-62.659

> <W(SA)>
2.309

> <Valence>
7.602

> <Coulomb>
-1.744

> <VdW>
0.893

> <VdW6>
-7.110

> <VdW12>
8.004

> <Bond>
0.131

> <Angle>
2.489

> <Pdih>
4.981

> <Idih>
0.001

> <Tether>
0.000

$$$$
VeraChem MOL file


 22 21  0  0  0  0  0  0  0  0999 V2000     
   19.1182   16.5528   19.4735 C   0  0  0  0  0  0  0  0  0  0  0  0
   18.3470   16.7779   18.5618 O   0  5  0  0  0  0  0  0  0  0  0  0
   19.4502   15.4344   19.8132 O   0  0  0  0  0  0  0  0  0  0  0  0
   19.6826   17.7383   20.2483 C   0  0  0  0  0  0  0  0  0  0  0  0
   19.7733   18.5844   19.5567 H   0  0  0  0  0  0  0  0  0  0  0  0
   20.6950   17.4723   20.5720 H   0  0  0  0  0  0  0  0  0  0  0  0
   18.8040   18.1329   21.4641 C   0  0  0  0  0  0  0  0  0  0  0  0
   17.7752   18.2971   21.1149 H   0  0  0  0  0  0  0  0  0  0  0  0
   18.7603   17.2950   22.1735 H   0  0  0  0  0  0  0  0  0  0  0  0
   19.2883   19.4099   22.1918 C   0  0  0  0  0  0  0  0  0  0  0  0
   18.5307   19.6836   22.9371 H   0  0  0  0  0  0  0  0  0  0  0  0
   19.3389   20.2433   21.4781 H   0  0  0  0  0  0  0  0  0  0  0  0
   20.6588   19.2369   22.8917 C   0  0  0  0  0  0  0  0  0  0  0  0
   20.6086   18.4022   23.6041 H   0  0  0  0  0  0  0  0  0  0  0  0
   21.4180   18.9661   22.1471 H   0  0  0  0  0  0  0  0  0  0  0  0
   21.1403   20.5120   23.6226 C   0  0  0  0  0  0  0  0  0  0  0  0
   21.1810   21.3523   22.9157 H   0  0  0  0  0  0  0  0  0  0  0  0
   22.1698   20.3498   23.9705 H   0  0  0  0  0  0  0  0  0  0  0  0
   20.2631   20.8936   24.8348 C   0  0  0  0  0  0  0  0  0  0  0  0
   19.2521   21.1843   24.5236 H   0  0  0  0  0  0  0  0  0  0  0  0
   20.7015   21.7442   25.3726 H   0  0  0  0  0  0  0  0  0  0  0  0
   20.1799   20.0556   25.5390 H   0  0  0  0  0  0  0  0  0  0  0  0
  1  2  1  0  0  0  0
  1  3  2  0  0  0  0
  1  4  1  0  0  0  0
  4  5  1  0  0  0  0
  4  6  1  0  0  0  0
  4  7  1  0  0  0  0
  7  8  1  0  0  0  0
  7  9  1  0  0  0  0
  7 10  1  0  0  0  0
 10 11  1  0  0  0  0
 10 12  1  0  0  0  0
 10 13  1  0  0  0  0
 13 14  1  0  0  0  0
 13 15  1  0  0  0  0
 13 16  1  0  0  0  0
 16 17  1  0  0  0  0
 16 18  1  0  0  0  0
 16 19  1  0  0  0  0
 19 20  1  0  0  0  0
 19 21  1  0  0  0  0
 19 22  1  0  0  0  0
M  END
> <VConfSearch Rank>
405

> <Conf_Id>
60

> <Delta U+W>
0.386

> <U+W>
-52.773

> <U>
7.689

> <W>
-60.463

> <W(PB)>
-62.772

> <W(SA)>
2.309

> <Valence>
8.197

> <Coulomb>
-1.561

> <VdW>
1.053

> <VdW6>
-7.737

> <VdW12>
8.790

> <Bond>
0.181

> <Angle>
2.780

> <Pdih>
5.235

> <Idih>
0.001

> <Tether>
0.000

$$$$
VeraChem MOL file


 22 21  0  0  0  0  0  0  0  0999 V2000     
   18.6020   20.9218   19.2795 C   0  0  0  0  0  0  0  0  0  0  0  0
   19.5412   21.3796   18.6590 O   0  5  0  0  0  0  0  0  0  0  0  0
   17.4640   21.3358   19.1796 O   0  0  0  0  0  0  0  0  0  0  0  0
   18.8700   19.7802   20.2537 C   0  0  0  0  0  0  0  0  0  0  0  0
   19.6838   19.1744   19.8401 H   0  0  0  0  0  0  0  0  0  0  0  0
   17.9763   19.1458   20.2881 H   0  0  0  0  0  0  0  0  0  0  0  0
   19.2271   20.2791   21.6782 C   0  0  0  0  0  0  0  0  0  0  0  0
   20.1509   20.8727   21.6391 H   0  0  0  0  0  0  0  0  0  0  0  0
   18.4355   20.9603   22.0201 H   0  0  0  0  0  0  0  0  0  0  0  0
   19.3804   19.1403   22.7148 C   0  0  0  0  0  0  0  0  0  0  0  0
   18.4583   18.5441   22.7454 H   0  0  0  0  0  0  0  0  0  0  0  0
   19.4891   19.5969   23.7068 H   0  0  0  0  0  0  0  0  0  0  0  0
   20.5918   18.2160   22.4387 C   0  0  0  0  0  0  0  0  0  0  0  0
   20.4828   17.7563   21.4483 H   0  0  0  0  0  0  0  0  0  0  0  0
   21.5135   18.8127   22.4062 H   0  0  0  0  0  0  0  0  0  0  0  0
   20.7472   17.0808   23.4775 C   0  0  0  0  0  0  0  0  0  0  0  0
   21.5370   16.3977   23.1357 H   0  0  0  0  0  0  0  0  0  0  0  0
   19.8229   16.4884   23.5214 H   0  0  0  0  0  0  0  0  0  0  0  0
   21.1088   17.5867   24.8910 C   0  0  0  0  0  0  0  0  0  0  0  0
   22.0116   18.2107   24.8660 H   0  0  0  0  0  0  0  0  0  0  0  0
   21.3016   16.7407   25.5633 H   0  0  0  0  0  0  0  0  0  0  0  0
   20.2935   18.1770   25.3273 H   0  0  0  0  0  0  0  0  0  0  0  0
  1  2  1  0  0  0  0
  1  3  2  0  0  0  0
  1  4  1  0  0  0  0
  4  5  1  0  0  0  0
  4  6  1  0  0  0  0
  4  7  1  0  0  0  0
  7  8  1  0  0  0  0
  7  9  1  0  0  0  0
  7 10  1  0  0  0  0
 10 11  1  0  0  0  0
 10 12  1  0  0  0  0
 10 13  1  0  0  0  0
 13 14  1  0  0  0  0
 13 15  1  0  0  0  0
 13 16  1  0  0  0  0
 16 17  1  0  0  0  0
 16 18  1  0  0  0  0
 16 19  1  0  0  0  0
 19 20  1  0  0  0  0
 19 21  1  0  0  0  0
 19 22  1  0  0  0  0
M  END
> <VConfSearch Rank>
406

> <Conf_Id>
28

> <Delta U+W>
0.351

> <U+W>
-52.808

> <U>
7.689

> <W>
-60.498

> <W(PB)>
-62.768

> <W(SA)>
2.270

> <Valence>
8.197

> <Coulomb>
-1.561

> <VdW>
1.053

> <VdW6>
-7.737

> <VdW12>
8.791

> <Bond>
0.181

> <Angle>
2.780

> <Pdih>
5.235

> <Idih>
0.001

> <Tether>
0.000

$$$$
VeraChem MOL file


 22 21  0  0  0  0  0  0  0  0999 V2000     
   18.0921   18.0987   19.1001 C   0  0  0  0  0  0  0  0  0  0  0  0
   17.5042   17.0362   19.0556 O   0  5  0  0  0  0  0  0  0  0  0  0
   17.6353   19.1392   18.6698 O   0  0  0  0  0  0  0  0  0  0  0  0
   19.4709   18.1319   19.7497 C   0  0  0  0  0  0  0  0  0  0  0  0
   20.0670   18.9018   19.2451 H   0  0  0  0  0  0  0  0  0  0  0  0
   19.9594   17.1683   19.5612 H   0  0  0  0  0  0  0  0  0  0  0  0
   19.4124   18.4139   21.2713 C   0  0  0  0  0  0  0  0  0  0  0  0
   18.9022   19.3722   21.4349 H   0  0  0  0  0  0  0  0  0  0  0  0
   18.8052   17.6398   21.7605 H   0  0  0  0  0  0  0  0  0  0  0  0
   20.8235   18.4467   21.9029 C   0  0  0  0  0  0  0  0  0  0  0  0
   21.4136   19.2554   21.4504 H   0  0  0  0  0  0  0  0  0  0  0  0
   21.3442   17.5098   21.6620 H   0  0  0  0  0  0  0  0  0  0  0  0
   20.8066   18.6161   23.4406 C   0  0  0  0  0  0  0  0  0  0  0  0
   20.2200   17.8052   23.8938 H   0  0  0  0  0  0  0  0  0  0  0  0
   21.8334   18.5027   23.8144 H   0  0  0  0  0  0  0  0  0  0  0  0
   20.2524   19.9821   23.9044 C   0  0  0  0  0  0  0  0  0  0  0  0
   19.2001   20.0839   23.6084 H   0  0  0  0  0  0  0  0  0  0  0  0
   20.8047   20.7933   23.4104 H   0  0  0  0  0  0  0  0  0  0  0  0
   20.3607   20.1463   25.4338 C   0  0  0  0  0  0  0  0  0  0  0  0
   21.4066   20.0885   25.7625 H   0  0  0  0  0  0  0  0  0  0  0  0
   19.7939   19.3628   25.9537 H   0  0  0  0  0  0  0  0  0  0  0  0
   19.9604   21.1191   25.7476 H   0  0  0  0  0  0  0  0  0  0  0  0
  1  2  1  0  0  0  0
  1  3  2  0  0  0  0
  1  4  1  0  0  0  0
  4  5  1  0  0  0  0
  4  6  1  0  0  0  0
  4  7  1  0  0  0  0
  7  8  1  0  0  0  0
  7  9  1  0  0  0  0
  7 10  1  0  0  0  0
 10 11  1  0  0  0  0
 10 12  1  0  0  0  0
 10 13  1  0  0  0  0
 13 14  1  0  0  0  0
 13 15  1  0  0  0  0
 13 16  1  0  0  0  0
 16 17  1  0  0  0  0
 16 18  1  0  0  0  0
 16 19  1  0  0  0  0
 19 20  1  0  0  0  0
 19 21  1  0  0  0  0
 19 22  1  0  0  0  0
M  END
> <VConfSearch Rank>
407

> <Conf_Id>
50

> <Delta U+W>
-0.486

> <U+W>
-53.646

> <U>
7.026

> <W>
-60.672

> <W(PB)>
-62.964

> <W(SA)>
2.292

> <Valence>
7.637

> <Coulomb>
-1.488

> <VdW>
0.877

> <VdW6>
-7.165

> <VdW12>
8.043

> <Bond>
0.134

> <Angle>
2.513

> <Pdih>
4.990

> <Idih>
0.001

> <Tether>
0.000

$$$$
VeraChem MOL file


 22 21  0  0  0  0  0  0  0  0999 V2000     
   18.8196   17.0237   25.2818 C   0  0  0  0  0  0  0  0  0  0  0  0
   18.2289   15.9791   25.0915 O   0  5  0  0  0  0  0  0  0  0  0  0
   18.5329   17.8078   26.1647 O   0  0  0  0  0  0  0  0  0  0  0  0
   19.9713   17.3799   24.3485 C   0  0  0  0  0  0  0  0  0  0  0  0
   20.4586   16.4479   24.0379 H   0  0  0  0  0  0  0  0  0  0  0  0
   20.7082   17.9560   24.9210 H   0  0  0  0  0  0  0  0  0  0  0  0
   19.5128   18.1839   23.1069 C   0  0  0  0  0  0  0  0  0  0  0  0
   18.7691   17.5977   22.5496 H   0  0  0  0  0  0  0  0  0  0  0  0
   19.0113   19.1007   23.4435 H   0  0  0  0  0  0  0  0  0  0  0  0
   20.7004   18.5352   22.1809 C   0  0  0  0  0  0  0  0  0  0  0  0
   21.2336   17.6113   21.9182 H   0  0  0  0  0  0  0  0  0  0  0  0
   21.4190   19.1656   22.7224 H   0  0  0  0  0  0  0  0  0  0  0  0
   20.2737   19.2429   20.8730 C   0  0  0  0  0  0  0  0  0  0  0  0
   21.1563   19.3399   20.2260 H   0  0  0  0  0  0  0  0  0  0  0  0
   19.5581   18.6111   20.3292 H   0  0  0  0  0  0  0  0  0  0  0  0
   19.6631   20.6441   21.1011 C   0  0  0  0  0  0  0  0  0  0  0  0
   20.3568   21.2593   21.6906 H   0  0  0  0  0  0  0  0  0  0  0  0
   18.7345   20.5625   21.6811 H   0  0  0  0  0  0  0  0  0  0  0  0
   19.3590   21.3524   19.7656 C   0  0  0  0  0  0  0  0  0  0  0  0
   18.6454   20.7714   19.1669 H   0  0  0  0  0  0  0  0  0  0  0  0
   20.2742   21.4862   19.1740 H   0  0  0  0  0  0  0  0  0  0  0  0
   18.9232   22.3441   19.9442 H   0  0  0  0  0  0  0  0  0  0  0  0
  1  2  1  0  0  0  0
  1  3  2  0  0  0  0
  1  4  1  0  0  0  0
  4  5  1  0  0  0  0
  4  6  1  0  0  0  0
  4  7  1  0  0  0  0
  7  8  1  0  0  0  0
  7  9  1  0  0  0  0
  7 10  1  0  0  0  0
 10 11  1  0  0  0  0
 10 12  1  0  0  0  0
 10 13  1  0  0  0  0
 13 14  1  0  0  0  0
 13 15  1  0  0  0  0
 13 16  1  0  0  0  0
 16 17  1  0  0  0  0
 16 18  1  0  0  0  0
 16 19  1  0  0  0  0
 19 20  1  0  0  0  0
 19 21  1  0  0  0  0
 19 22  1  0  0  0  0
M  END
> <VConfSearch Rank>
408

> <Conf_Id>
51

> <Delta U+W>
-0.517

> <U+W>
-53.677

> <U>
7.026

> <W>
-60.703

> <W(PB)>
-63.007

> <W(SA)>
2.304

> <Valence>
7.638

> <Coulomb>
-1.488

> <VdW>
0.877

> <VdW6>
-7.165

> <VdW12>
8.042

> <Bond>
0.134

> <Angle>
2.513

> <Pdih>
4.990

> <Idih>
0.001

> <Tether>
0.000

$$$$
VeraChem MOL file


 22 21  0  0  0  0  0  0  0  0999 V2000     
   20.2954   19.4941   18.9584 C   0  0  0  0  0  0  0  0  0  0  0  0
   19.8421   18.6054   18.2645 O   0  5  0  0  0  0  0  0  0  0  0  0
   19.8784   20.6355   18.9465 O   0  0  0  0  0  0  0  0  0  0  0  0
   21.4648   19.1607   19.8807 C   0  0  0  0  0  0  0  0  0  0  0  0
   21.9666   20.0946   20.1617 H   0  0  0  0  0  0  0  0  0  0  0  0
   22.1859   18.5759   19.2975 H   0  0  0  0  0  0  0  0  0  0  0  0
   21.0604   18.3670   21.1502 C   0  0  0  0  0  0  0  0  0  0  0  0
   20.5345   17.4489   20.8533 H   0  0  0  0  0  0  0  0  0  0  0  0
   21.9705   18.0531   21.6792 H   0  0  0  0  0  0  0  0  0  0  0  0
   20.1728   19.1918   22.1090 C   0  0  0  0  0  0  0  0  0  0  0  0
   19.2519   19.4953   21.5920 H   0  0  0  0  0  0  0  0  0  0  0  0
   20.6975   20.1146   22.3923 H   0  0  0  0  0  0  0  0  0  0  0  0
   19.8086   18.3940   23.3795 C   0  0  0  0  0  0  0  0  0  0  0  0
   19.2839   17.4715   23.0954 H   0  0  0  0  0  0  0  0  0  0  0  0
   20.7278   18.0919   23.8999 H   0  0  0  0  0  0  0  0  0  0  0  0
   18.9215   19.2168   24.3372 C   0  0  0  0  0  0  0  0  0  0  0  0
   18.0001   19.5193   23.8206 H   0  0  0  0  0  0  0  0  0  0  0  0
   19.4438   20.1397   24.6250 H   0  0  0  0  0  0  0  0  0  0  0  0
   18.5593   18.4166   25.6044 C   0  0  0  0  0  0  0  0  0  0  0  0
   18.0076   17.5028   25.3476 H   0  0  0  0  0  0  0  0  0  0  0  0
   17.9287   19.0163   26.2736 H   0  0  0  0  0  0  0  0  0  0  0  0
   19.4623   18.1278   26.1581 H   0  0  0  0  0  0  0  0  0  0  0  0
  1  2  1  0  0  0  0
  1  3  2  0  0  0  0
  1  4  1  0  0  0  0
  4  5  1  0  0  0  0
  4  6  1  0  0  0  0
  4  7  1  0  0  0  0
  7  8  1  0  0  0  0
  7  9  1  0  0  0  0
  7 10  1  0  0  0  0
 10 11  1  0  0  0  0
 10 12  1  0  0  0  0
 10 13  1  0  0  0  0
 13 14  1  0  0  0  0
 13 15  1  0  0  0  0
 13 16  1  0  0  0  0
 16 17  1  0  0  0  0
 16 18  1  0  0  0  0
 16 19  1  0  0  0  0
 19 20  1  0  0  0  0
 19 21  1  0  0  0  0
 19 22  1  0  0  0  0
M  END
> <VConfSearch Rank>
409

> <Conf_Id>
43

> <Delta U+W>
-0.129

> <U+W>
-53.289

> <U>
7.937

> <W>
-61.225

> <W(PB)>
-63.523

> <W(SA)>
2.297

> <Valence>
7.358

> <Coulomb>
-0.022

> <VdW>
0.601

> <VdW6>
-7.363

> <VdW12>
7.964

> <Bond>
0.121

> <Angle>
2.425

> <Pdih>
4.811

> <Idih>
0.000

> <Tether>
0.000

$$$$
VeraChem MOL file


 22 21  0  0  0  0  0  0  0  0999 V2000     
   19.9051   21.9304   20.3879 C   0  0  0  0  0  0  0  0  0  0  0  0
   21.0052   22.0956   19.8986 O   0  5  0  0  0  0  0  0  0  0  0  0
   19.3878   22.7141   21.1593 O   0  0  0  0  0  0  0  0  0  0  0  0
   19.1246   20.6788   19.9963 C   0  0  0  0  0  0  0  0  0  0  0  0
   19.1993   20.5730   18.9076 H   0  0  0  0  0  0  0  0  0  0  0  0
   18.0647   20.8403   20.2275 H   0  0  0  0  0  0  0  0  0  0  0  0
   19.6299   19.3811   20.6786 C   0  0  0  0  0  0  0  0  0  0  0  0
   19.1082   18.5205   20.2384 H   0  0  0  0  0  0  0  0  0  0  0  0
   20.6989   19.2480   20.4611 H   0  0  0  0  0  0  0  0  0  0  0  0
   19.4036   19.3865   22.2071 C   0  0  0  0  0  0  0  0  0  0  0  0
   18.3356   19.5329   22.4194 H   0  0  0  0  0  0  0  0  0  0  0  0
   19.9369   20.2353   22.6572 H   0  0  0  0  0  0  0  0  0  0  0  0
   19.8849   18.0734   22.8611 C   0  0  0  0  0  0  0  0  0  0  0  0
   19.3509   17.2233   22.4146 H   0  0  0  0  0  0  0  0  0  0  0  0
   20.9529   17.9278   22.6484 H   0  0  0  0  0  0  0  0  0  0  0  0
   19.6599   18.0784   24.3876 C   0  0  0  0  0  0  0  0  0  0  0  0
   18.5922   18.2223   24.6042 H   0  0  0  0  0  0  0  0  0  0  0  0
   20.1941   18.9266   24.8379 H   0  0  0  0  0  0  0  0  0  0  0  0
   20.1422   16.7659   25.0372 C   0  0  0  0  0  0  0  0  0  0  0  0
   19.6014   15.9029   24.6273 H   0  0  0  0  0  0  0  0  0  0  0  0
   19.9748   16.7868   26.1219 H   0  0  0  0  0  0  0  0  0  0  0  0
   21.2153   16.6125   24.8628 H   0  0  0  0  0  0  0  0  0  0  0  0
  1  2  1  0  0  0  0
  1  3  2  0  0  0  0
  1  4  1  0  0  0  0
  4  5  1  0  0  0  0
  4  6  1  0  0  0  0
  4  7  1  0  0  0  0
  7  8  1  0  0  0  0
  7  9  1  0  0  0  0
  7 10  1  0  0  0  0
 10 11  1  0  0  0  0
 10 12  1  0  0  0  0
 10 13  1  0  0  0  0
 13 14  1  0  0  0  0
 13 15  1  0  0  0  0
 13 16  1  0  0  0  0
 16 17  1  0  0  0  0
 16 18  1  0  0  0  0
 16 19  1  0  0  0  0
 19 20  1  0  0  0  0
 19 21  1  0  0  0  0
 19 22  1  0  0  0  0
M  END
> <VConfSearch Rank>
410

> <Conf_Id>
44

> <Delta U+W>
-0.155

> <U+W>
-53.314

> <U>
7.937

> <W>
-61.252

> <W(PB)>
-63.556

> <W(SA)>
2.304

> <Valence>
7.358

> <Coulomb>
-0.021

> <VdW>
0.600

> <VdW6>
-7.363

> <VdW12>
7.964

> <Bond>
0.121

> <Angle>
2.425

> <Pdih>
4.811

> <Idih>
0.001

> <Tether>
0.000

$$$$
VeraChem MOL file


 22 21  0  0  0  0  0  0  0  0999 V2000     
   22.5749   18.9905   24.4274 C   0  0  0  0  0  0  0  0  0  0  0  0
   23.5753   19.3518   23.8395 O   0  5  0  0  0  0  0  0  0  0  0  0
   22.5167   17.9767   25.0949 O   0  0  0  0  0  0  0  0  0  0  0  0
   21.3304   19.8694   24.3366 C   0  0  0  0  0  0  0  0  0  0  0  0
   21.6491   20.9054   24.5016 H   0  0  0  0  0  0  0  0  0  0  0  0
   20.6565   19.6094   25.1618 H   0  0  0  0  0  0  0  0  0  0  0  0
   20.5818   19.7681   22.9820 C   0  0  0  0  0  0  0  0  0  0  0  0
   19.8040   20.5417   22.9563 H   0  0  0  0  0  0  0  0  0  0  0  0
   21.2796   19.9918   22.1631 H   0  0  0  0  0  0  0  0  0  0  0  0
   19.9411   18.3769   22.7602 C   0  0  0  0  0  0  0  0  0  0  0  0
   19.2127   18.1729   23.5568 H   0  0  0  0  0  0  0  0  0  0  0  0
   20.7177   17.6046   22.8466 H   0  0  0  0  0  0  0  0  0  0  0  0
   19.2570   18.2258   21.3807 C   0  0  0  0  0  0  0  0  0  0  0  0
   19.9857   18.4300   20.5844 H   0  0  0  0  0  0  0  0  0  0  0  0
   18.9493   17.1782   21.2586 H   0  0  0  0  0  0  0  0  0  0  0  0
   18.0201   19.1349   21.2015 C   0  0  0  0  0  0  0  0  0  0  0  0
   18.3176   20.1910   21.2395 H   0  0  0  0  0  0  0  0  0  0  0  0
   17.3157   18.9697   22.0284 H   0  0  0  0  0  0  0  0  0  0  0  0
   17.3085   18.8632   19.8608 C   0  0  0  0  0  0  0  0  0  0  0  0
   17.9829   19.0471   19.0143 H   0  0  0  0  0  0  0  0  0  0  0  0
   16.4350   19.5182   19.7469 H   0  0  0  0  0  0  0  0  0  0  0  0
   16.9616   17.8231   19.8034 H   0  0  0  0  0  0  0  0  0  0  0  0
  1  2  1  0  0  0  0
  1  3  2  0  0  0  0
  1  4  1  0  0  0  0
  4  5  1  0  0  0  0
  4  6  1  0  0  0  0
  4  7  1  0  0  0  0
  7  8  1  0  0  0  0
  7  9  1  0  0  0  0
  7 10  1  0  0  0  0
 10 11  1  0  0  0  0
 10 12  1  0  0  0  0
 10 13  1  0  0  0  0
 13 14  1  0  0  0  0
 13 15  1  0  0  0  0
 13 16  1  0  0  0  0
 16 17  1  0  0  0  0
 16 18  1  0  0  0  0
 16 19  1  0  0  0  0
 19 20  1  0  0  0  0
 19 21  1  0  0  0  0
 19 22  1  0  0  0  0
M  END
> <VConfSearch Rank>
411

> <Conf_Id>
53

> <Delta U+W>
0.723

> <U+W>
-52.436

> <U>
8.587

> <W>
-61.022

> <W(PB)>
-63.285

> <W(SA)>
2.263

> <Valence>
7.933

> <Coulomb>
-0.124

> <VdW>
0.778

> <VdW6>
-7.981

> <VdW12>
8.759

> <Bond>
0.160

> <Angle>
2.698

> <Pdih>
5.074

> <Idih>
0.001

> <Tether>
0.000

$$$$
VeraChem MOL file


 22 21  0  0  0  0  0  0  0  0999 V2000     
   22.2919   17.0528   21.3278 C   0  0  0  0  0  0  0  0  0  0  0  0
   22.2486   15.9962   21.9264 O   0  5  0  0  0  0  0  0  0  0  0  0
   23.0957   17.2957   20.4495 O   0  0  0  0  0  0  0  0  0  0  0  0
   21.2675   18.1246   21.6827 C   0  0  0  0  0  0  0  0  0  0  0  0
   21.7276   19.1054   21.5136 H   0  0  0  0  0  0  0  0  0  0  0  0
   21.0562   18.0387   22.7545 H   0  0  0  0  0  0  0  0  0  0  0  0
   19.9581   17.9980   20.8639 C   0  0  0  0  0  0  0  0  0  0  0  0
   20.2140   17.9490   19.7964 H   0  0  0  0  0  0  0  0  0  0  0  0
   19.4709   17.0437   21.1071 H   0  0  0  0  0  0  0  0  0  0  0  0
   18.9569   19.1612   21.0762 C   0  0  0  0  0  0  0  0  0  0  0  0
   18.0994   18.9844   20.4126 H   0  0  0  0  0  0  0  0  0  0  0  0
   19.4023   20.1083   20.7420 H   0  0  0  0  0  0  0  0  0  0  0  0
   18.4250   19.2990   22.5253 C   0  0  0  0  0  0  0  0  0  0  0  0
   17.3711   19.6061   22.4814 H   0  0  0  0  0  0  0  0  0  0  0  0
   18.4377   18.3215   23.0266 H   0  0  0  0  0  0  0  0  0  0  0  0
   19.1953   20.3448   23.3642 C   0  0  0  0  0  0  0  0  0  0  0  0
   19.1250   21.3284   22.8797 H   0  0  0  0  0  0  0  0  0  0  0  0
   20.2617   20.0936   23.4105 H   0  0  0  0  0  0  0  0  0  0  0  0
   18.6358   20.4428   24.7976 C   0  0  0  0  0  0  0  0  0  0  0  0
   17.5771   20.7335   24.7874 H   0  0  0  0  0  0  0  0  0  0  0  0
   19.1878   21.1936   25.3778 H   0  0  0  0  0  0  0  0  0  0  0  0
   18.7224   19.4806   25.3190 H   0  0  0  0  0  0  0  0  0  0  0  0
  1  2  1  0  0  0  0
  1  3  2  0  0  0  0
  1  4  1  0  0  0  0
  4  5  1  0  0  0  0
  4  6  1  0  0  0  0
  4  7  1  0  0  0  0
  7  8  1  0  0  0  0
  7  9  1  0  0  0  0
  7 10  1  0  0  0  0
 10 11  1  0  0  0  0
 10 12  1  0  0  0  0
 10 13  1  0  0  0  0
 13 14  1  0  0  0  0
 13 15  1  0  0  0  0
 13 16  1  0  0  0  0
 16 17  1  0  0  0  0
 16 18  1  0  0  0  0
 16 19  1  0  0  0  0
 19 20  1  0  0  0  0
 19 21  1  0  0  0  0
 19 22  1  0  0  0  0
M  END
> <VConfSearch Rank>
412

> <Conf_Id>
5

> <Delta U+W>
2.167

> <U+W>
-50.993

> <U>
10.045

> <W>
-61.037

> <W(PB)>
-63.303

> <W(SA)>
2.266

> <Valence>
10.100

> <Coulomb>
-0.883

> <VdW>
0.828

> <VdW6>
-8.177

> <VdW12>
9.005

> <Bond>
0.182

> <Angle>
2.988

> <Pdih>
6.930

> <Idih>
0.001

> <Tether>
0.000

$$$$
VeraChem MOL file


 22 21  0  0  0  0  0  0  0  0999 V2000     
   17.9930   17.3439   24.6348 C   0  0  0  0  0  0  0  0  0  0  0  0
   18.7146   16.6905   25.3620 O   0  5  0  0  0  0  0  0  0  0  0  0
   16.7802   17.3393   24.7102 O   0  0  0  0  0  0  0  0  0  0  0  0
   18.6437   18.1990   23.5533 C   0  0  0  0  0  0  0  0  0  0  0  0
   19.6004   18.5597   23.9474 H   0  0  0  0  0  0  0  0  0  0  0  0
   18.0058   19.0740   23.3806 H   0  0  0  0  0  0  0  0  0  0  0  0
   18.8640   17.4260   22.2285 C   0  0  0  0  0  0  0  0  0  0  0  0
   19.5682   16.6011   22.4044 H   0  0  0  0  0  0  0  0  0  0  0  0
   17.9142   16.9607   21.9305 H   0  0  0  0  0  0  0  0  0  0  0  0
   19.3718   18.3011   21.0551 C   0  0  0  0  0  0  0  0  0  0  0  0
   18.6266   19.0692   20.8071 H   0  0  0  0  0  0  0  0  0  0  0  0
   19.4420   17.6564   20.1683 H   0  0  0  0  0  0  0  0  0  0  0  0
   20.7584   18.9528   21.2886 C   0  0  0  0  0  0  0  0  0  0  0  0
   21.3541   18.3368   21.9760 H   0  0  0  0  0  0  0  0  0  0  0  0
   21.3040   18.9610   20.3351 H   0  0  0  0  0  0  0  0  0  0  0  0
   20.6728   20.4076   21.8054 C   0  0  0  0  0  0  0  0  0  0  0  0
   20.1084   20.4515   22.7445 H   0  0  0  0  0  0  0  0  0  0  0  0
   20.1239   21.0235   21.0798 H   0  0  0  0  0  0  0  0  0  0  0  0
   22.0738   21.0116   22.0283 C   0  0  0  0  0  0  0  0  0  0  0  0
   22.6355   20.4345   22.7744 H   0  0  0  0  0  0  0  0  0  0  0  0
   21.9964   22.0459   22.3879 H   0  0  0  0  0  0  0  0  0  0  0  0
   22.6516   21.0196   21.0948 H   0  0  0  0  0  0  0  0  0  0  0  0
  1  2  1  0  0  0  0
  1  3  2  0  0  0  0
  1  4  1  0  0  0  0
  4  5  1  0  0  0  0
  4  6  1  0  0  0  0
  4  7  1  0  0  0  0
  7  8  1  0  0  0  0
  7  9  1  0  0  0  0
  7 10  1  0  0  0  0
 10 11  1  0  0  0  0
 10 12  1  0  0  0  0
 10 13  1  0  0  0  0
 13 14  1  0  0  0  0
 13 15  1  0  0  0  0
 13 16  1  0  0  0  0
 16 17  1  0  0  0  0
 16 18  1  0  0  0  0
 16 19  1  0  0  0  0
 19 20  1  0  0  0  0
 19 21  1  0  0  0  0
 19 22  1  0  0  0  0
M  END
> <VConfSearch Rank>
413

> <Conf_Id>
6

> <Delta U+W>
2.118

> <U+W>
-51.042

> <U>
10.045

> <W>
-61.086

> <W(PB)>
-63.356

> <W(SA)>
2.270

> <Valence>
10.100

> <Coulomb>
-0.883

> <VdW>
0.828

> <VdW6>
-8.177

> <VdW12>
9.004

> <Bond>
0.182

> <Angle>
2.988

> <Pdih>
6.930

> <Idih>
0.001

> <Tether>
0.000

$$$$
VeraChem MOL file


 22 21  0  0  0  0  0  0  0  0999 V2000     
   21.2250   18.3421   24.7086 C   0  0  0  0  0  0  0  0  0  0  0  0
   22.3185   18.8189   24.4754 O   0  5  0  0  0  0  0  0  0  0  0  0
   20.9973   17.1484   24.6937 O   0  0  0  0  0  0  0  0  0  0  0  0
   20.0931   19.2859   25.1107 C   0  0  0  0  0  0  0  0  0  0  0  0
   20.4034   19.7559   26.0511 H   0  0  0  0  0  0  0  0  0  0  0  0
   19.1981   18.6936   25.3364 H   0  0  0  0  0  0  0  0  0  0  0  0
   19.7568   20.3974   24.0770 C   0  0  0  0  0  0  0  0  0  0  0  0
   19.2234   21.2000   24.6040 H   0  0  0  0  0  0  0  0  0  0  0  0
   20.6839   20.8493   23.6977 H   0  0  0  0  0  0  0  0  0  0  0  0
   18.8677   19.9376   22.8950 C   0  0  0  0  0  0  0  0  0  0  0  0
   18.5706   20.8281   22.3243 H   0  0  0  0  0  0  0  0  0  0  0  0
   17.9395   19.4947   23.2811 H   0  0  0  0  0  0  0  0  0  0  0  0
   19.5590   18.9417   21.9365 C   0  0  0  0  0  0  0  0  0  0  0  0
   20.5359   19.3410   21.6310 H   0  0  0  0  0  0  0  0  0  0  0  0
   19.7475   17.9937   22.4559 H   0  0  0  0  0  0  0  0  0  0  0  0
   18.6995   18.6642   20.6851 C   0  0  0  0  0  0  0  0  0  0  0  0
   18.5097   19.6044   20.1489 H   0  0  0  0  0  0  0  0  0  0  0  0
   17.7214   18.2664   20.9891 H   0  0  0  0  0  0  0  0  0  0  0  0
   19.3869   17.6634   19.7346 C   0  0  0  0  0  0  0  0  0  0  0  0
   20.3548   18.0506   19.3902 H   0  0  0  0  0  0  0  0  0  0  0  0
   18.7623   17.4767   18.8514 H   0  0  0  0  0  0  0  0  0  0  0  0
   19.5613   16.7024   20.2363 H   0  0  0  0  0  0  0  0  0  0  0  0
  1  2  1  0  0  0  0
  1  3  2  0  0  0  0
  1  4  1  0  0  0  0
  4  5  1  0  0  0  0
  4  6  1  0  0  0  0
  4  7  1  0  0  0  0
  7  8  1  0  0  0  0
  7  9  1  0  0  0  0
  7 10  1  0  0  0  0
 10 11  1  0  0  0  0
 10 12  1  0  0  0  0
 10 13  1  0  0  0  0
 13 14  1  0  0  0  0
 13 15  1  0  0  0  0
 13 16  1  0  0  0  0
 16 17  1  0  0  0  0
 16 18  1  0  0  0  0
 16 19  1  0  0  0  0
 19 20  1  0  0  0  0
 19 21  1  0  0  0  0
 19 22  1  0  0  0  0
M  END
> <VConfSearch Rank>
414

> <Conf_Id>
8

> <Delta U+W>
1.886

> <U+W>
-51.274

> <U>
11.237

> <W>
-62.510

> <W(PB)>
-64.777

> <W(SA)>
2.267

> <Valence>
9.029

> <Coulomb>
1.667

> <VdW>
0.540

> <VdW6>
-8.825

> <VdW12>
9.365

> <Bond>
0.186

> <Angle>
3.195

> <Pdih>
5.642

> <Idih>
0.007

> <Tether>
0.000

$$$$
VeraChem MOL file


 22 21  0  0  0  0  0  0  0  0999 V2000     
   16.8347   19.6490   21.4771 C   0  0  0  0  0  0  0  0  0  0  0  0
   16.3703   18.9616   22.3651 O   0  5  0  0  0  0  0  0  0  0  0  0
   16.4547   19.6036   20.3235 O   0  0  0  0  0  0  0  0  0  0  0  0
   17.9344   20.6456   21.8332 C   0  0  0  0  0  0  0  0  0  0  0  0
   17.9626   20.7637   22.9222 H   0  0  0  0  0  0  0  0  0  0  0  0
   17.6364   21.6183   21.4248 H   0  0  0  0  0  0  0  0  0  0  0  0
   19.3374   20.2672   21.2841 C   0  0  0  0  0  0  0  0  0  0  0  0
   19.2877   20.2364   20.1868 H   0  0  0  0  0  0  0  0  0  0  0  0
   20.0502   21.0636   21.5369 H   0  0  0  0  0  0  0  0  0  0  0  0
   19.8856   18.9116   21.7944 C   0  0  0  0  0  0  0  0  0  0  0  0
   20.8281   18.7089   21.2703 H   0  0  0  0  0  0  0  0  0  0  0  0
   19.1958   18.1035   21.5148 H   0  0  0  0  0  0  0  0  0  0  0  0
   20.1283   18.8812   23.3233 C   0  0  0  0  0  0  0  0  0  0  0  0
   20.8021   19.6999   23.6097 H   0  0  0  0  0  0  0  0  0  0  0  0
   19.1787   19.0591   23.8445 H   0  0  0  0  0  0  0  0  0  0  0  0
   20.7032   17.5367   23.8273 C   0  0  0  0  0  0  0  0  0  0  0  0
   20.0386   16.7142   23.5286 H   0  0  0  0  0  0  0  0  0  0  0  0
   20.7086   17.5471   24.9260 H   0  0  0  0  0  0  0  0  0  0  0  0
   22.1373   17.2557   23.3283 C   0  0  0  0  0  0  0  0  0  0  0  0
   22.1642   17.1148   22.2408 H   0  0  0  0  0  0  0  0  0  0  0  0
   22.5316   16.3415   23.7906 H   0  0  0  0  0  0  0  0  0  0  0  0
   22.8121   18.0824   23.5860 H   0  0  0  0  0  0  0  0  0  0  0  0
  1  2  1  0  0  0  0
  1  3  2  0  0  0  0
  1  4  1  0  0  0  0
  4  5  1  0  0  0  0
  4  6  1  0  0  0  0
  4  7  1  0  0  0  0
  7  8  1  0  0  0  0
  7  9  1  0  0  0  0
  7 10  1  0  0  0  0
 10 11  1  0  0  0  0
 10 12  1  0  0  0  0
 10 13  1  0  0  0  0
 13 14  1  0  0  0  0
 13 15  1  0  0  0  0
 13 16  1  0  0  0  0
 16 17  1  0  0  0  0
 16 18  1  0  0  0  0
 16 19  1  0  0  0  0
 19 20  1  0  0  0  0
 19 21  1  0  0  0  0
 19 22  1  0  0  0  0
M  END
> <VConfSearch Rank>
415

> <Conf_Id>
93

> <Delta U+W>
1.836

> <U+W>
-51.323

> <U>
10.427

> <W>
-61.751

> <W(PB)>
-63.980

> <W(SA)>
2.230

> <Valence>
8.446

> <Coulomb>
1.306

> <VdW>
0.676

> <VdW6>
-8.928

> <VdW12>
9.604

> <Bond>
0.209

> <Angle>
3.066

> <Pdih>
5.170

> <Idih>
0.001

> <Tether>
0.000

$$$$
VeraChem MOL file


 22 21  0  0  0  0  0  0  0  0999 V2000     
   18.0792   21.4745   23.6007 C   0  0  0  0  0  0  0  0  0  0  0  0
   18.5105   22.3300   24.3487 O   0  5  0  0  0  0  0  0  0  0  0  0
   17.1939   20.6997   23.9055 O   0  0  0  0  0  0  0  0  0  0  0  0
   18.6619   21.3902   22.1927 C   0  0  0  0  0  0  0  0  0  0  0  0
   18.6400   22.4016   21.7705 H   0  0  0  0  0  0  0  0  0  0  0  0
   17.9943   20.7821   21.5719 H   0  0  0  0  0  0  0  0  0  0  0  0
   20.1148   20.8432   22.1377 C   0  0  0  0  0  0  0  0  0  0  0  0
   20.4714   20.8711   21.0992 H   0  0  0  0  0  0  0  0  0  0  0  0
   20.7666   21.5221   22.7046 H   0  0  0  0  0  0  0  0  0  0  0  0
   20.2855   19.4090   22.6968 C   0  0  0  0  0  0  0  0  0  0  0  0
   19.9644   19.3795   23.7470 H   0  0  0  0  0  0  0  0  0  0  0  0
   21.3565   19.1701   22.6940 H   0  0  0  0  0  0  0  0  0  0  0  0
   19.5153   18.3364   21.8882 C   0  0  0  0  0  0  0  0  0  0  0  0
   18.4419   18.5646   21.9144 H   0  0  0  0  0  0  0  0  0  0  0  0
   19.8193   18.3759   20.8334 H   0  0  0  0  0  0  0  0  0  0  0  0
   19.7103   16.9011   22.4302 C   0  0  0  0  0  0  0  0  0  0  0  0
   19.0240   16.2285   21.8975 H   0  0  0  0  0  0  0  0  0  0  0  0
   19.4217   16.8626   23.4897 H   0  0  0  0  0  0  0  0  0  0  0  0
   21.1511   16.3712   22.2627 C   0  0  0  0  0  0  0  0  0  0  0  0
   21.8619   16.9386   22.8761 H   0  0  0  0  0  0  0  0  0  0  0  0
   21.4732   16.4330   21.2151 H   0  0  0  0  0  0  0  0  0  0  0  0
   21.2113   15.3200   22.5730 H   0  0  0  0  0  0  0  0  0  0  0  0
  1  2  1  0  0  0  0
  1  3  2  0  0  0  0
  1  4  1  0  0  0  0
  4  5  1  0  0  0  0
  4  6  1  0  0  0  0
  4  7  1  0  0  0  0
  7  8  1  0  0  0  0
  7  9  1  0  0  0  0
  7 10  1  0  0  0  0
 10 11  1  0  0  0  0
 10 12  1  0  0  0  0
 10 13  1  0  0  0  0
 13 14  1  0  0  0  0
 13 15  1  0  0  0  0
 13 16  1  0  0  0  0
 16 17  1  0  0  0  0
 16 18  1  0  0  0  0
 16 19  1  0  0  0  0
 19 20  1  0  0  0  0
 19 21  1  0  0  0  0
 19 22  1  0  0  0  0
M  END
> <VConfSearch Rank>
416

> <Conf_Id>
70

> <Delta U+W>
1.803

> <U+W>
-51.356

> <U>
10.428

> <W>
-61.784

> <W(PB)>
-64.014

> <W(SA)>
2.230

> <Valence>
8.445

> <Coulomb>
1.306

> <VdW>
0.676

> <VdW6>
-8.929

> <VdW12>
9.605

> <Bond>
0.209

> <Angle>
3.066

> <Pdih>
5.170

> <Idih>
0.001

> <Tether>
0.000

$$$$
VeraChem MOL file


 22 21  0  0  0  0  0  0  0  0999 V2000     
   20.0349   16.8408   24.8772 C   0  0  0  0  0  0  0  0  0  0  0  0
   21.2322   16.8249   25.0844 O   0  5  0  0  0  0  0  0  0  0  0  0
   19.3856   15.8489   24.6098 O   0  0  0  0  0  0  0  0  0  0  0  0
   19.3051   18.1772   24.9795 C   0  0  0  0  0  0  0  0  0  0  0  0
   19.6620   18.6777   25.8874 H   0  0  0  0  0  0  0  0  0  0  0  0
   18.2356   17.9820   25.1243 H   0  0  0  0  0  0  0  0  0  0  0  0
   19.5199   19.1070   23.7570 C   0  0  0  0  0  0  0  0  0  0  0  0
   19.0727   20.0870   23.9712 H   0  0  0  0  0  0  0  0  0  0  0  0
   20.5969   19.2720   23.6208 H   0  0  0  0  0  0  0  0  0  0  0  0
   18.8982   18.5340   22.4611 C   0  0  0  0  0  0  0  0  0  0  0  0
   17.8422   18.2950   22.6473 H   0  0  0  0  0  0  0  0  0  0  0  0
   19.3881   17.5858   22.1996 H   0  0  0  0  0  0  0  0  0  0  0  0
   18.9777   19.5039   21.2584 C   0  0  0  0  0  0  0  0  0  0  0  0
   18.4089   19.0710   20.4242 H   0  0  0  0  0  0  0  0  0  0  0  0
   18.4816   20.4500   21.5146 H   0  0  0  0  0  0  0  0  0  0  0  0
   20.4229   19.7839   20.7881 C   0  0  0  0  0  0  0  0  0  0  0  0
   20.9361   18.8343   20.5824 H   0  0  0  0  0  0  0  0  0  0  0  0
   20.9884   20.2882   21.5826 H   0  0  0  0  0  0  0  0  0  0  0  0
   20.4450   20.6629   19.5214 C   0  0  0  0  0  0  0  0  0  0  0  0
   19.9201   20.1710   18.6920 H   0  0  0  0  0  0  0  0  0  0  0  0
   21.4776   20.8552   19.2021 H   0  0  0  0  0  0  0  0  0  0  0  0
   19.9618   21.6311   19.7072 H   0  0  0  0  0  0  0  0  0  0  0  0
  1  2  1  0  0  0  0
  1  3  2  0  0  0  0
  1  4  1  0  0  0  0
  4  5  1  0  0  0  0
  4  6  1  0  0  0  0
  4  7  1  0  0  0  0
  7  8  1  0  0  0  0
  7  9  1  0  0  0  0
  7 10  1  0  0  0  0
 10 11  1  0  0  0  0
 10 12  1  0  0  0  0
 10 13  1  0  0  0  0
 13 14  1  0  0  0  0
 13 15  1  0  0  0  0
 13 16  1  0  0  0  0
 16 17  1  0  0  0  0
 16 18  1  0  0  0  0
 16 19  1  0  0  0  0
 19 20  1  0  0  0  0
 19 21  1  0  0  0  0
 19 22  1  0  0  0  0
M  END
> <VConfSearch Rank>
417

> <Conf_Id>
85

> <Delta U+W>
0.707

> <U+W>
-52.452

> <U>
8.925

> <W>
-61.378

> <W(PB)>
-63.661

> <W(SA)>
2.283

> <Valence>
7.881

> <Coulomb>
0.349

> <VdW>
0.695

> <VdW6>
-8.049

> <VdW12>
8.743

> <Bond>
0.156

> <Angle>
2.660

> <Pdih>
5.064

> <Idih>
0.001

> <Tether>
0.000

$$$$
VeraChem MOL file


 22 21  0  0  0  0  0  0  0  0999 V2000     
   20.3989   15.6717   23.1318 C   0  0  0  0  0  0  0  0  0  0  0  0
   19.8705   14.9150   22.3412 O   0  5  0  0  0  0  0  0  0  0  0  0
   21.5488   15.5553   23.5076 O   0  0  0  0  0  0  0  0  0  0  0  0
   19.5680   16.8175   23.7028 C   0  0  0  0  0  0  0  0  0  0  0  0
   19.7354   16.8341   24.7862 H   0  0  0  0  0  0  0  0  0  0  0  0
   18.5059   16.5913   23.5492 H   0  0  0  0  0  0  0  0  0  0  0  0
   19.9113   18.2071   23.1056 C   0  0  0  0  0  0  0  0  0  0  0  0
   19.3806   18.9729   23.6852 H   0  0  0  0  0  0  0  0  0  0  0  0
   20.9864   18.4001   23.2243 H   0  0  0  0  0  0  0  0  0  0  0  0
   19.5160   18.3286   21.6156 C   0  0  0  0  0  0  0  0  0  0  0  0
   18.4275   18.2195   21.5168 H   0  0  0  0  0  0  0  0  0  0  0  0
   19.9597   17.4942   21.0554 H   0  0  0  0  0  0  0  0  0  0  0  0
   19.9643   19.6511   20.9442 C   0  0  0  0  0  0  0  0  0  0  0  0
   21.0603   19.7260   20.9549 H   0  0  0  0  0  0  0  0  0  0  0  0
   19.6798   19.5958   19.8846 H   0  0  0  0  0  0  0  0  0  0  0  0
   19.3328   20.9313   21.5460 C   0  0  0  0  0  0  0  0  0  0  0  0
   18.3537   20.7017   21.9886 H   0  0  0  0  0  0  0  0  0  0  0  0
   19.1401   21.6437   20.7320 H   0  0  0  0  0  0  0  0  0  0  0  0
   20.2404   21.6278   22.5844 C   0  0  0  0  0  0  0  0  0  0  0  0
   20.4619   20.9752   23.4364 H   0  0  0  0  0  0  0  0  0  0  0  0
   19.7554   22.5327   22.9724 H   0  0  0  0  0  0  0  0  0  0  0  0
   21.1941   21.9268   22.1304 H   0  0  0  0  0  0  0  0  0  0  0  0
  1  2  1  0  0  0  0
  1  3  2  0  0  0  0
  1  4  1  0  0  0  0
  4  5  1  0  0  0  0
  4  6  1  0  0  0  0
  4  7  1  0  0  0  0
  7  8  1  0  0  0  0
  7  9  1  0  0  0  0
  7 10  1  0  0  0  0
 10 11  1  0  0  0  0
 10 12  1  0  0  0  0
 10 13  1  0  0  0  0
 13 14  1  0  0  0  0
 13 15  1  0  0  0  0
 13 16  1  0  0  0  0
 16 17  1  0  0  0  0
 16 18  1  0  0  0  0
 16 19  1  0  0  0  0
 19 20  1  0  0  0  0
 19 21  1  0  0  0  0
 19 22  1  0  0  0  0
M  END
> <VConfSearch Rank>
418

> <Conf_Id>
82

> <Delta U+W>
3.438

> <U+W>
-49.721

> <U>
11.773

> <W>
-61.495

> <W(PB)>
-63.749

> <W(SA)>
2.254

> <Valence>
10.419

> <Coulomb>
0.565

> <VdW>
0.789

> <VdW6>
-8.847

> <VdW12>
9.636

> <Bond>
0.200

> <Angle>
3.187

> <Pdih>
7.032

> <Idih>
0.001

> <Tether>
0.000

$$$$
VeraChem MOL file


 22 21  0  0  0  0  0  0  0  0999 V2000     
   20.8331   21.2165   24.6074 C   0  0  0  0  0  0  0  0  0  0  0  0
   20.7289   20.7369   25.7192 O   0  5  0  0  0  0  0  0  0  0  0  0
   21.7958   21.8614   24.2413 O   0  0  0  0  0  0  0  0  0  0  0  0
   19.6807   21.0165   23.6269 C   0  0  0  0  0  0  0  0  0  0  0  0
   19.7622   21.7675   22.8317 H   0  0  0  0  0  0  0  0  0  0  0  0
   18.7509   21.2272   24.1682 H   0  0  0  0  0  0  0  0  0  0  0  0
   19.6108   19.5934   23.0142 C   0  0  0  0  0  0  0  0  0  0  0  0
   19.5771   18.8493   23.8220 H   0  0  0  0  0  0  0  0  0  0  0  0
   18.6712   19.5041   22.4545 H   0  0  0  0  0  0  0  0  0  0  0  0
   20.7983   19.2926   22.0706 C   0  0  0  0  0  0  0  0  0  0  0  0
   21.7397   19.4906   22.6011 H   0  0  0  0  0  0  0  0  0  0  0  0
   20.7738   19.9877   21.2203 H   0  0  0  0  0  0  0  0  0  0  0  0
   20.8398   17.8359   21.5444 C   0  0  0  0  0  0  0  0  0  0  0  0
   21.7494   17.7304   20.9376 H   0  0  0  0  0  0  0  0  0  0  0  0
   20.9582   17.1360   22.3829 H   0  0  0  0  0  0  0  0  0  0  0  0
   19.6279   17.4266   20.6706 C   0  0  0  0  0  0  0  0  0  0  0  0
   19.9813   16.7636   19.8688 H   0  0  0  0  0  0  0  0  0  0  0  0
   19.2022   18.3083   20.1720 H   0  0  0  0  0  0  0  0  0  0  0  0
   18.5327   16.6767   21.4613 C   0  0  0  0  0  0  0  0  0  0  0  0
   18.9325   15.7545   21.9026 H   0  0  0  0  0  0  0  0  0  0  0  0
   17.7029   16.3991   20.7985 H   0  0  0  0  0  0  0  0  0  0  0  0
   18.1227   17.2890   22.2724 H   0  0  0  0  0  0  0  0  0  0  0  0
  1  2  1  0  0  0  0
  1  3  2  0  0  0  0
  1  4  1  0  0  0  0
  4  5  1  0  0  0  0
  4  6  1  0  0  0  0
  4  7  1  0  0  0  0
  7  8  1  0  0  0  0
  7  9  1  0  0  0  0
  7 10  1  0  0  0  0
 10 11  1  0  0  0  0
 10 12  1  0  0  0  0
 10 13  1  0  0  0  0
 13 14  1  0  0  0  0
 13 15  1  0  0  0  0
 13 16  1  0  0  0  0
 16 17  1  0  0  0  0
 16 18  1  0  0  0  0
 16 19  1  0  0  0  0
 19 20  1  0  0  0  0
 19 21  1  0  0  0  0
 19 22  1  0  0  0  0
M  END
> <VConfSearch Rank>
419

> <Conf_Id>
94

> <Delta U+W>
3.471

> <U+W>
-49.688

> <U>
11.773

> <W>
-61.461

> <W(PB)>
-63.710

> <W(SA)>
2.248

> <Valence>
10.419

> <Coulomb>
0.566

> <VdW>
0.789

> <VdW6>
-8.847

> <VdW12>
9.636

> <Bond>
0.200

> <Angle>
3.187

> <Pdih>
7.032

> <Idih>
0.001

> <Tether>
0.000

$$$$
VeraChem MOL file


 22 21  0  0  0  0  0  0  0  0999 V2000     
   16.6938   17.9471   22.3435 C   0  0  0  0  0  0  0  0  0  0  0  0
   15.8499   17.8644   23.2140 O   0  5  0  0  0  0  0  0  0  0  0  0
   16.7565   17.1919   21.3936 O   0  0  0  0  0  0  0  0  0  0  0  0
   17.7428   19.0470   22.4603 C   0  0  0  0  0  0  0  0  0  0  0  0
   17.2770   19.9124   22.9464 H   0  0  0  0  0  0  0  0  0  0  0  0
   18.0196   19.3533   21.4451 H   0  0  0  0  0  0  0  0  0  0  0  0
   18.9970   18.5984   23.2541 C   0  0  0  0  0  0  0  0  0  0  0  0
   18.6775   18.2208   24.2351 H   0  0  0  0  0  0  0  0  0  0  0  0
   19.4720   17.7507   22.7426 H   0  0  0  0  0  0  0  0  0  0  0  0
   20.0283   19.7335   23.4737 C   0  0  0  0  0  0  0  0  0  0  0  0
   20.8551   19.3487   24.0852 H   0  0  0  0  0  0  0  0  0  0  0  0
   19.5603   20.5265   24.0725 H   0  0  0  0  0  0  0  0  0  0  0  0
   20.6012   20.3652   22.1776 C   0  0  0  0  0  0  0  0  0  0  0  0
   19.7992   20.8930   21.6452 H   0  0  0  0  0  0  0  0  0  0  0  0
   21.3296   21.1383   22.4576 H   0  0  0  0  0  0  0  0  0  0  0  0
   21.2798   19.3705   21.2039 C   0  0  0  0  0  0  0  0  0  0  0  0
   21.6199   19.9243   20.3182 H   0  0  0  0  0  0  0  0  0  0  0  0
   20.5472   18.6373   20.8410 H   0  0  0  0  0  0  0  0  0  0  0  0
   22.4878   18.6369   21.8254 C   0  0  0  0  0  0  0  0  0  0  0  0
   23.2263   19.3522   22.2100 H   0  0  0  0  0  0  0  0  0  0  0  0
   22.9839   18.0087   21.0743 H   0  0  0  0  0  0  0  0  0  0  0  0
   22.1764   17.9852   22.6514 H   0  0  0  0  0  0  0  0  0  0  0  0
  1  2  1  0  0  0  0
  1  3  2  0  0  0  0
  1  4  1  0  0  0  0
  4  5  1  0  0  0  0
  4  6  1  0  0  0  0
  4  7  1  0  0  0  0
  7  8  1  0  0  0  0
  7  9  1  0  0  0  0
  7 10  1  0  0  0  0
 10 11  1  0  0  0  0
 10 12  1  0  0  0  0
 10 13  1  0  0  0  0
 13 14  1  0  0  0  0
 13 15  1  0  0  0  0
 13 16  1  0  0  0  0
 16 17  1  0  0  0  0
 16 18  1  0  0  0  0
 16 19  1  0  0  0  0
 19 20  1  0  0  0  0
 19 21  1  0  0  0  0
 19 22  1  0  0  0  0
M  END
> <VConfSearch Rank>
420

> <Conf_Id>
56

> <Delta U+W>
0.853

> <U+W>
-52.307

> <U>
8.874

> <W>
-61.181

> <W(PB)>
-63.413

> <W(SA)>
2.232

> <Valence>
8.479

> <Coulomb>
-0.357

> <VdW>
0.753

> <VdW6>
-9.081

> <VdW12>
9.833

> <Bond>
0.221

> <Angle>
3.208

> <Pdih>
5.050

> <Idih>
0.000

> <Tether>
0.000

$$$$
VeraChem MOL file


 22 21  0  0  0  0  0  0  0  0999 V2000     
   19.9040   16.9109   18.6540 C   0  0  0  0  0  0  0  0  0  0  0  0
   19.2592   17.7607   18.0704 O   0  5  0  0  0  0  0  0  0  0  0  0
   20.3043   15.8971   18.1175 O   0  0  0  0  0  0  0  0  0  0  0  0
   20.2428   17.0982   20.1337 C   0  0  0  0  0  0  0  0  0  0  0  0
   21.3344   17.0569   20.2269 H   0  0  0  0  0  0  0  0  0  0  0  0
   19.8417   16.2321   20.6731 H   0  0  0  0  0  0  0  0  0  0  0  0
   19.7109   18.4076   20.7747 C   0  0  0  0  0  0  0  0  0  0  0  0
   20.1116   19.2711   20.2257 H   0  0  0  0  0  0  0  0  0  0  0  0
   18.6175   18.4454   20.6725 H   0  0  0  0  0  0  0  0  0  0  0  0
   20.0974   18.5153   22.2658 C   0  0  0  0  0  0  0  0  0  0  0  0
   21.1909   18.4772   22.3655 H   0  0  0  0  0  0  0  0  0  0  0  0
   19.6959   17.6509   22.8125 H   0  0  0  0  0  0  0  0  0  0  0  0
   19.5672   19.8184   22.9015 C   0  0  0  0  0  0  0  0  0  0  0  0
   19.9684   20.6830   22.3550 H   0  0  0  0  0  0  0  0  0  0  0  0
   18.4737   19.8569   22.8021 H   0  0  0  0  0  0  0  0  0  0  0  0
   19.9531   19.9267   24.3916 C   0  0  0  0  0  0  0  0  0  0  0  0
   21.0465   19.8906   24.4948 H   0  0  0  0  0  0  0  0  0  0  0  0
   19.5518   19.0644   24.9419 H   0  0  0  0  0  0  0  0  0  0  0  0
   19.4218   21.2293   25.0226 C   0  0  0  0  0  0  0  0  0  0  0  0
   19.8325   22.1096   24.5110 H   0  0  0  0  0  0  0  0  0  0  0  0
   19.7051   21.2898   26.0815 H   0  0  0  0  0  0  0  0  0  0  0  0
   18.3266   21.2771   24.9615 H   0  0  0  0  0  0  0  0  0  0  0  0
  1  2  1  0  0  0  0
  1  3  2  0  0  0  0
  1  4  1  0  0  0  0
  4  5  1  0  0  0  0
  4  6  1  0  0  0  0
  4  7  1  0  0  0  0
  7  8  1  0  0  0  0
  7  9  1  0  0  0  0
  7 10  1  0  0  0  0
 10 11  1  0  0  0  0
 10 12  1  0  0  0  0
 10 13  1  0  0  0  0
 13 14  1  0  0  0  0
 13 15  1  0  0  0  0
 13 16  1  0  0  0  0
 16 17  1  0  0  0  0
 16 18  1  0  0  0  0
 16 19  1  0  0  0  0
 19 20  1  0  0  0  0
 19 21  1  0  0  0  0
 19 22  1  0  0  0  0
M  END
> <VConfSearch Rank>
421

> <Conf_Id>
0

> <Delta U+W>
0.000

> <U+W>
-53.159

> <U>
6.763

> <W>
-59.922

> <W(PB)>
-62.256

> <W(SA)>
2.334

> <Valence>
7.600

> <Coulomb>
-2.139

> <VdW>
1.302

> <VdW6>
-6.786

> <VdW12>
8.088

> <Bond>
0.134

> <Angle>
2.720

> <Pdih>
4.746

> <Idih>
0.000

> <Tether>
0.000

$$$$
VeraChem MOL file


 22 21  0  0  0  0  0  0  0  0999 V2000     
   23.7155   18.9812   21.2500 C   0  0  0  0  0  0  0  0  0  0  0  0
   24.4548   18.9381   22.2133 O   0  5  0  0  0  0  0  0  0  0  0  0
   23.9871   19.5634   20.2186 O   0  0  0  0  0  0  0  0  0  0  0  0
   22.3628   18.2851   21.3489 C   0  0  0  0  0  0  0  0  0  0  0  0
   22.4784   17.4060   21.9942 H   0  0  0  0  0  0  0  0  0  0  0  0
   22.0931   17.9210   20.3503 H   0  0  0  0  0  0  0  0  0  0  0  0
   21.2492   19.2096   21.8996 C   0  0  0  0  0  0  0  0  0  0  0  0
   21.5403   19.5759   22.8939 H   0  0  0  0  0  0  0  0  0  0  0  0
   21.1550   20.0909   21.2500 H   0  0  0  0  0  0  0  0  0  0  0  0
   19.8905   18.4819   21.9901 C   0  0  0  0  0  0  0  0  0  0  0  0
   19.9884   17.6008   22.6391 H   0  0  0  0  0  0  0  0  0  0  0  0
   19.6030   18.1160   20.9948 H   0  0  0  0  0  0  0  0  0  0  0  0
   18.7824   19.4060   22.5393 C   0  0  0  0  0  0  0  0  0  0  0  0
   19.0695   19.7721   23.5345 H   0  0  0  0  0  0  0  0  0  0  0  0
   18.6841   20.2872   21.8905 H   0  0  0  0  0  0  0  0  0  0  0  0
   17.4241   18.6794   22.6300 C   0  0  0  0  0  0  0  0  0  0  0  0
   17.5178   17.7983   23.2799 H   0  0  0  0  0  0  0  0  0  0  0  0
   17.1325   18.3133   21.6358 H   0  0  0  0  0  0  0  0  0  0  0  0
   16.3202   19.6055   23.1788 C   0  0  0  0  0  0  0  0  0  0  0  0
   16.1831   20.4805   22.5300 H   0  0  0  0  0  0  0  0  0  0  0  0
   16.5714   19.9617   24.1865 H   0  0  0  0  0  0  0  0  0  0  0  0
   15.3619   19.0731   23.2367 H   0  0  0  0  0  0  0  0  0  0  0  0
  1  2  1  0  0  0  0
  1  3  2  0  0  0  0
  1  4  1  0  0  0  0
  4  5  1  0  0  0  0
  4  6  1  0  0  0  0
  4  7  1  0  0  0  0
  7  8  1  0  0  0  0
  7  9  1  0  0  0  0
  7 10  1  0  0  0  0
 10 11  1  0  0  0  0
 10 12  1  0  0  0  0
 10 13  1  0  0  0  0
 13 14  1  0  0  0  0
 13 15  1  0  0  0  0
 13 16  1  0  0  0  0
 16 17  1  0  0  0  0
 16 18  1  0  0  0  0
 16 19  1  0  0  0  0
 19 20  1  0  0  0  0
 19 21  1  0  0  0  0
 19 22  1  0  0  0  0
M  END
> <VConfSearch Rank>
422

> <Conf_Id>
10

> <Delta U+W>
-1.291

> <U+W>
-54.451

> <U>
5.779

> <W>
-60.230

> <W(PB)>
-62.557

> <W(SA)>
2.328

> <Valence>
7.101

> <Coulomb>
-2.079

> <VdW>
0.757

> <VdW6>
-6.496

> <VdW12>
7.253

> <Bond>
0.100

> <Angle>
2.262

> <Pdih>
4.738

> <Idih>
0.001

> <Tether>
0.000

$$$$
VeraChem MOL file


 22 21  0  0  0  0  0  0  0  0999 V2000     
   20.3652   18.9308   26.0742 C   0  0  0  0  0  0  0  0  0  0  0  0
   20.8429   17.8918   26.4850 O   0  5  0  0  0  0  0  0  0  0  0  0
   20.4933   19.9996   26.6378 O   0  0  0  0  0  0  0  0  0  0  0  0
   19.5795   18.8952   24.7682 C   0  0  0  0  0  0  0  0  0  0  0  0
   18.7929   19.6573   24.8228 H   0  0  0  0  0  0  0  0  0  0  0  0
   19.0821   17.9205   24.6963 H   0  0  0  0  0  0  0  0  0  0  0  0
   20.4695   19.1341   23.5236 C   0  0  0  0  0  0  0  0  0  0  0  0
   20.9704   20.1076   23.6177 H   0  0  0  0  0  0  0  0  0  0  0  0
   21.2593   18.3707   23.4902 H   0  0  0  0  0  0  0  0  0  0  0  0
   19.6509   19.0931   22.2150 C   0  0  0  0  0  0  0  0  0  0  0  0
   18.8637   19.8586   22.2504 H   0  0  0  0  0  0  0  0  0  0  0  0
   19.1494   18.1199   22.1347 H   0  0  0  0  0  0  0  0  0  0  0  0
   20.5444   19.3285   20.9755 C   0  0  0  0  0  0  0  0  0  0  0  0
   21.0926   20.2718   21.1039 H   0  0  0  0  0  0  0  0  0  0  0  0
   21.3016   18.5352   20.9088 H   0  0  0  0  0  0  0  0  0  0  0  0
   19.7510   19.3985   19.6500 C   0  0  0  0  0  0  0  0  0  0  0  0
   20.4390   19.6836   18.8421 H   0  0  0  0  0  0  0  0  0  0  0  0
   18.9967   20.1952   19.7106 H   0  0  0  0  0  0  0  0  0  0  0  0
   19.0691   18.0651   19.2745 C   0  0  0  0  0  0  0  0  0  0  0  0
   18.5959   18.1408   18.2869 H   0  0  0  0  0  0  0  0  0  0  0  0
   18.2880   17.7970   19.9968 H   0  0  0  0  0  0  0  0  0  0  0  0
   19.7999   17.2468   19.2371 H   0  0  0  0  0  0  0  0  0  0  0  0
  1  2  1  0  0  0  0
  1  3  2  0  0  0  0
  1  4  1  0  0  0  0
  4  5  1  0  0  0  0
  4  6  1  0  0  0  0
  4  7  1  0  0  0  0
  7  8  1  0  0  0  0
  7  9  1  0  0  0  0
  7 10  1  0  0  0  0
 10 11  1  0  0  0  0
 10 12  1  0  0  0  0
 10 13  1  0  0  0  0
 13 14  1  0  0  0  0
 13 15  1  0  0  0  0
 13 16  1  0  0  0  0
 16 17  1  0  0  0  0
 16 18  1  0  0  0  0
 16 19  1  0  0  0  0
 19 20  1  0  0  0  0
 19 21  1  0  0  0  0
 19 22  1  0  0  0  0
M  END
> <VConfSearch Rank>
423

> <Conf_Id>
37

> <Delta U+W>
-0.345

> <U+W>
-53.504

> <U>
6.751

> <W>
-60.255

> <W(PB)>
-62.592

> <W(SA)>
2.336

> <Valence>
7.602

> <Coulomb>
-1.744

> <VdW>
0.894

> <VdW6>
-7.110

> <VdW12>
8.004

> <Bond>
0.131

> <Angle>
2.489

> <Pdih>
4.982

> <Idih>
0.001

> <Tether>
0.000

$$$$
VeraChem MOL file


 22 21  0  0  0  0  0  0  0  0999 V2000     
   17.6379   22.0364   21.0872 C   0  0  0  0  0  0  0  0  0  0  0  0
   17.1818   22.6602   22.0249 O   0  5  0  0  0  0  0  0  0  0  0  0
   17.1177   21.9946   19.9899 O   0  0  0  0  0  0  0  0  0  0  0  0
   18.9224   21.2448   21.3056 C   0  0  0  0  0  0  0  0  0  0  0  0
   19.5339   21.7833   22.0396 H   0  0  0  0  0  0  0  0  0  0  0  0
   19.4815   21.2354   20.3622 H   0  0  0  0  0  0  0  0  0  0  0  0
   18.6620   19.7961   21.7869 C   0  0  0  0  0  0  0  0  0  0  0  0
   18.0909   19.8225   22.7254 H   0  0  0  0  0  0  0  0  0  0  0  0
   18.0375   19.2752   21.0478 H   0  0  0  0  0  0  0  0  0  0  0  0
   19.9774   19.0161   22.0004 C   0  0  0  0  0  0  0  0  0  0  0  0
   20.5963   19.5484   22.7344 H   0  0  0  0  0  0  0  0  0  0  0  0
   20.5451   18.9894   21.0602 H   0  0  0  0  0  0  0  0  0  0  0  0
   19.7122   17.5719   22.4845 C   0  0  0  0  0  0  0  0  0  0  0  0
   19.1892   17.5953   23.4503 H   0  0  0  0  0  0  0  0  0  0  0  0
   19.0348   17.0761   21.7758 H   0  0  0  0  0  0  0  0  0  0  0  0
   20.9969   16.7208   22.6127 C   0  0  0  0  0  0  0  0  0  0  0  0
   21.5195   16.6897   21.6467 H   0  0  0  0  0  0  0  0  0  0  0  0
   20.7119   15.6853   22.8446 H   0  0  0  0  0  0  0  0  0  0  0  0
   21.9597   17.2282   23.7081 C   0  0  0  0  0  0  0  0  0  0  0  0
   21.4504   17.2963   24.6782 H   0  0  0  0  0  0  0  0  0  0  0  0
   22.3628   18.2181   23.4602 H   0  0  0  0  0  0  0  0  0  0  0  0
   22.8094   16.5423   23.8199 H   0  0  0  0  0  0  0  0  0  0  0  0
  1  2  1  0  0  0  0
  1  3  2  0  0  0  0
  1  4  1  0  0  0  0
  4  5  1  0  0  0  0
  4  6  1  0  0  0  0
  4  7  1  0  0  0  0
  7  8  1  0  0  0  0
  7  9  1  0  0  0  0
  7 10  1  0  0  0  0
 10 11  1  0  0  0  0
 10 12  1  0  0  0  0
 10 13  1  0  0  0  0
 13 14  1  0  0  0  0
 13 15  1  0  0  0  0
 13 16  1  0  0  0  0
 16 17  1  0  0  0  0
 16 18  1  0  0  0  0
 16 19  1  0  0  0  0
 19 20  1  0  0  0  0
 19 21  1  0  0  0  0
 19 22  1  0  0  0  0
M  END
> <VConfSearch Rank>
424

> <Conf_Id>
38

> <Delta U+W>
-0.439

> <U+W>
-53.598

> <U>
6.751

> <W>
-60.350

> <W(PB)>
-62.659

> <W(SA)>
2.309

> <Valence>
7.602

> <Coulomb>
-1.744

> <VdW>
0.893

> <VdW6>
-7.110

> <VdW12>
8.004

> <Bond>
0.131

> <Angle>
2.489

> <Pdih>
4.981

> <Idih>
0.001

> <Tether>
0.000

$$$$
VeraChem MOL file


 22 21  0  0  0  0  0  0  0  0999 V2000     
   17.4548   19.7884   19.4387 C   0  0  0  0  0  0  0  0  0  0  0  0
   16.2470   19.7292   19.5586 O   0  5  0  0  0  0  0  0  0  0  0  0
   18.0275   19.7433   18.3679 O   0  0  0  0  0  0  0  0  0  0  0  0
   18.2991   19.9028   20.7029 C   0  0  0  0  0  0  0  0  0  0  0  0
   17.7234   20.4671   21.4463 H   0  0  0  0  0  0  0  0  0  0  0  0
   19.1859   20.4977   20.4577 H   0  0  0  0  0  0  0  0  0  0  0  0
   18.7071   18.5215   21.2783 C   0  0  0  0  0  0  0  0  0  0  0  0
   17.7996   17.9183   21.4196 H   0  0  0  0  0  0  0  0  0  0  0  0
   19.3243   17.9852   20.5442 H   0  0  0  0  0  0  0  0  0  0  0  0
   19.4576   18.6085   22.6288 C   0  0  0  0  0  0  0  0  0  0  0  0
   19.5741   17.5892   23.0185 H   0  0  0  0  0  0  0  0  0  0  0  0
   18.8416   19.1524   23.3578 H   0  0  0  0  0  0  0  0  0  0  0  0
   20.8493   19.2783   22.5173 C   0  0  0  0  0  0  0  0  0  0  0  0
   21.4646   18.7354   21.7871 H   0  0  0  0  0  0  0  0  0  0  0  0
   20.7341   20.2988   22.1306 H   0  0  0  0  0  0  0  0  0  0  0  0
   21.6009   19.3610   23.8666 C   0  0  0  0  0  0  0  0  0  0  0  0
   20.9837   19.8936   24.6034 H   0  0  0  0  0  0  0  0  0  0  0  0
   22.5076   19.9657   23.7271 H   0  0  0  0  0  0  0  0  0  0  0  0
   22.0081   17.9815   24.4286 C   0  0  0  0  0  0  0  0  0  0  0  0
   21.1298   17.3829   24.6998 H   0  0  0  0  0  0  0  0  0  0  0  0
   22.6194   18.1012   25.3324 H   0  0  0  0  0  0  0  0  0  0  0  0
   22.5975   17.4167   23.6947 H   0  0  0  0  0  0  0  0  0  0  0  0
  1  2  1  0  0  0  0
  1  3  2  0  0  0  0
  1  4  1  0  0  0  0
  4  5  1  0  0  0  0
  4  6  1  0  0  0  0
  4  7  1  0  0  0  0
  7  8  1  0  0  0  0
  7  9  1  0  0  0  0
  7 10  1  0  0  0  0
 10 11  1  0  0  0  0
 10 12  1  0  0  0  0
 10 13  1  0  0  0  0
 13 14  1  0  0  0  0
 13 15  1  0  0  0  0
 13 16  1  0  0  0  0
 16 17  1  0  0  0  0
 16 18  1  0  0  0  0
 16 19  1  0  0  0  0
 19 20  1  0  0  0  0
 19 21  1  0  0  0  0
 19 22  1  0  0  0  0
M  END
> <VConfSearch Rank>
425

> <Conf_Id>
60

> <Delta U+W>
0.386

> <U+W>
-52.773

> <U>
7.689

> <W>
-60.463

> <W(PB)>
-62.772

> <W(SA)>
2.309

> <Valence>
8.197

> <Coulomb>
-1.561

> <VdW>
1.053

> <VdW6>
-7.737

> <VdW12>
8.790

> <Bond>
0.181

> <Angle>
2.780

> <Pdih>
5.235

> <Idih>
0.001

> <Tether>
0.000

$$$$
VeraChem MOL file


 22 21  0  0  0  0  0  0  0  0999 V2000     
   22.2712   16.6961   20.4069 C   0  0  0  0  0  0  0  0  0  0  0  0
   21.8516   16.4488   19.2937 O   0  5  0  0  0  0  0  0  0  0  0  0
   23.1317   16.0420   20.9622 O   0  0  0  0  0  0  0  0  0  0  0  0
   21.6689   17.8785   21.1576 C   0  0  0  0  0  0  0  0  0  0  0  0
   21.4078   18.6436   20.4181 H   0  0  0  0  0  0  0  0  0  0  0  0
   22.4463   18.3022   21.8045 H   0  0  0  0  0  0  0  0  0  0  0  0
   20.4279   17.4842   22.0004 C   0  0  0  0  0  0  0  0  0  0  0  0
   19.6376   17.1069   21.3368 H   0  0  0  0  0  0  0  0  0  0  0  0
   20.7027   16.6498   22.6604 H   0  0  0  0  0  0  0  0  0  0  0  0
   19.8746   18.6393   22.8689 C   0  0  0  0  0  0  0  0  0  0  0  0
   20.6693   19.0195   23.5251 H   0  0  0  0  0  0  0  0  0  0  0  0
   19.0983   18.2277   23.5263 H   0  0  0  0  0  0  0  0  0  0  0  0
   19.2807   19.8036   22.0384 C   0  0  0  0  0  0  0  0  0  0  0  0
   20.0568   20.2183   21.3828 H   0  0  0  0  0  0  0  0  0  0  0  0
   18.4874   19.4229   21.3809 H   0  0  0  0  0  0  0  0  0  0  0  0
   18.7238   20.9558   22.9070 C   0  0  0  0  0  0  0  0  0  0  0  0
   18.4507   21.7918   22.2484 H   0  0  0  0  0  0  0  0  0  0  0  0
   19.5114   21.3318   23.5745 H   0  0  0  0  0  0  0  0  0  0  0  0
   17.4849   20.5555   23.7375 C   0  0  0  0  0  0  0  0  0  0  0  0
   16.6965   20.1441   23.0938 H   0  0  0  0  0  0  0  0  0  0  0  0
   17.0736   21.4300   24.2581 H   0  0  0  0  0  0  0  0  0  0  0  0
   17.7359   19.8055   24.4976 H   0  0  0  0  0  0  0  0  0  0  0  0
  1  2  1  0  0  0  0
  1  3  2  0  0  0  0
  1  4  1  0  0  0  0
  4  5  1  0  0  0  0
  4  6  1  0  0  0  0
  4  7  1  0  0  0  0
  7  8  1  0  0  0  0
  7  9  1  0  0  0  0
  7 10  1  0  0  0  0
 10 11  1  0  0  0  0
 10 12  1  0  0  0  0
 10 13  1  0  0  0  0
 13 14  1  0  0  0  0
 13 15  1  0  0  0  0
 13 16  1  0  0  0  0
 16 17  1  0  0  0  0
 16 18  1  0  0  0  0
 16 19  1  0  0  0  0
 19 20  1  0  0  0  0
 19 21  1  0  0  0  0
 19 22  1  0  0  0  0
M  END
> <VConfSearch Rank>
426

> <Conf_Id>
28

> <Delta U+W>
0.351

> <U+W>
-52.808

> <U>
7.689

> <W>
-60.498

> <W(PB)>
-62.768

> <W(SA)>
2.270

> <Valence>
8.197

> <Coulomb>
-1.561

> <VdW>
1.053

> <VdW6>
-7.737

> <VdW12>
8.791

> <Bond>
0.181

> <Angle>
2.780

> <Pdih>
5.235

> <Idih>
0.001

> <Tether>
0.000

$$$$
VeraChem MOL file


 22 21  0  0  0  0  0  0  0  0999 V2000     
   17.8099   15.8838   22.9674 C   0  0  0  0  0  0  0  0  0  0  0  0
   18.3429   14.9672   23.5609 O   0  5  0  0  0  0  0  0  0  0  0  0
   16.6823   16.2716   23.2009 O   0  0  0  0  0  0  0  0  0  0  0  0
   18.6075   16.6000   21.8833 C   0  0  0  0  0  0  0  0  0  0  0  0
   17.9051   16.9441   21.1146 H   0  0  0  0  0  0  0  0  0  0  0  0
   19.2728   15.8678   21.4102 H   0  0  0  0  0  0  0  0  0  0  0  0
   19.4280   17.7942   22.4299 C   0  0  0  0  0  0  0  0  0  0  0  0
   18.7434   18.5021   22.9154 H   0  0  0  0  0  0  0  0  0  0  0  0
   20.1198   17.4348   23.2042 H   0  0  0  0  0  0  0  0  0  0  0  0
   20.2226   18.5045   21.3095 C   0  0  0  0  0  0  0  0  0  0  0  0
   19.5273   18.9100   20.5617 H   0  0  0  0  0  0  0  0  0  0  0  0
   20.8431   17.7634   20.7872 H   0  0  0  0  0  0  0  0  0  0  0  0
   21.1424   19.6352   21.8280 C   0  0  0  0  0  0  0  0  0  0  0  0
   21.8406   19.2293   22.5728 H   0  0  0  0  0  0  0  0  0  0  0  0
   21.7563   19.9956   20.9912 H   0  0  0  0  0  0  0  0  0  0  0  0
   20.3704   20.8290   22.4339 C   0  0  0  0  0  0  0  0  0  0  0  0
   19.8100   20.5064   23.3211 H   0  0  0  0  0  0  0  0  0  0  0  0
   19.6350   21.2018   21.7077 H   0  0  0  0  0  0  0  0  0  0  0  0
   21.3228   21.9746   22.8320 C   0  0  0  0  0  0  0  0  0  0  0  0
   21.8735   22.3495   21.9593 H   0  0  0  0  0  0  0  0  0  0  0  0
   22.0528   21.6362   23.5789 H   0  0  0  0  0  0  0  0  0  0  0  0
   20.7603   22.8128   23.2632 H   0  0  0  0  0  0  0  0  0  0  0  0
  1  2  1  0  0  0  0
  1  3  2  0  0  0  0
  1  4  1  0  0  0  0
  4  5  1  0  0  0  0
  4  6  1  0  0  0  0
  4  7  1  0  0  0  0
  7  8  1  0  0  0  0
  7  9  1  0  0  0  0
  7 10  1  0  0  0  0
 10 11  1  0  0  0  0
 10 12  1  0  0  0  0
 10 13  1  0  0  0  0
 13 14  1  0  0  0  0
 13 15  1  0  0  0  0
 13 16  1  0  0  0  0
 16 17  1  0  0  0  0
 16 18  1  0  0  0  0
 16 19  1  0  0  0  0
 19 20  1  0  0  0  0
 19 21  1  0  0  0  0
 19 22  1  0  0  0  0
M  END
> <VConfSearch Rank>
427

> <Conf_Id>
50

> <Delta U+W>
-0.486

> <U+W>
-53.646

> <U>
7.026

> <W>
-60.672

> <W(PB)>
-62.964

> <W(SA)>
2.292

> <Valence>
7.637

> <Coulomb>
-1.488

> <VdW>
0.877

> <VdW6>
-7.165

> <VdW12>
8.043

> <Bond>
0.134

> <Angle>
2.513

> <Pdih>
4.990

> <Idih>
0.001

> <Tether>
0.000

$$$$
VeraChem MOL file


 22 21  0  0  0  0  0  0  0  0999 V2000     
   19.2585   16.4880   24.9663 C   0  0  0  0  0  0  0  0  0  0  0  0
   19.9050   15.4627   24.8816 O   0  5  0  0  0  0  0  0  0  0  0  0
   18.0889   16.5210   25.2940 O   0  0  0  0  0  0  0  0  0  0  0  0
   19.9474   17.8040   24.6227 C   0  0  0  0  0  0  0  0  0  0  0  0
   21.0033   17.7198   24.9065 H   0  0  0  0  0  0  0  0  0  0  0  0
   19.5061   18.5922   25.2445 H   0  0  0  0  0  0  0  0  0  0  0  0
   19.8238   18.1743   23.1240 C   0  0  0  0  0  0  0  0  0  0  0  0
   20.2617   17.3716   22.5148 H   0  0  0  0  0  0  0  0  0  0  0  0
   18.7597   18.2328   22.8599 H   0  0  0  0  0  0  0  0  0  0  0  0
   20.5266   19.5141   22.8048 C   0  0  0  0  0  0  0  0  0  0  0  0
   21.5693   19.4605   23.1467 H   0  0  0  0  0  0  0  0  0  0  0  0
   20.0540   20.3258   23.3747 H   0  0  0  0  0  0  0  0  0  0  0  0
   20.5229   19.8686   21.2988 C   0  0  0  0  0  0  0  0  0  0  0  0
   21.1460   20.7610   21.1499 H   0  0  0  0  0  0  0  0  0  0  0  0
   20.9990   19.0589   20.7290 H   0  0  0  0  0  0  0  0  0  0  0  0
   19.1110   20.1431   20.7336 C   0  0  0  0  0  0  0  0  0  0  0  0
   18.6143   20.9160   21.3362 H   0  0  0  0  0  0  0  0  0  0  0  0
   18.4936   19.2378   20.8010 H   0  0  0  0  0  0  0  0  0  0  0  0
   19.1703   20.6006   19.2622 C   0  0  0  0  0  0  0  0  0  0  0  0
   19.6385   19.8336   18.6314 H   0  0  0  0  0  0  0  0  0  0  0  0
   19.7495   21.5279   19.1616 H   0  0  0  0  0  0  0  0  0  0  0  0
   18.1606   20.7883   18.8746 H   0  0  0  0  0  0  0  0  0  0  0  0
  1  2  1  0  0  0  0
  1  3  2  0  0  0  0
  1  4  1  0  0  0  0
  4  5  1  0  0  0  0
  4  6  1  0  0  0  0
  4  7  1  0  0  0  0
  7  8  1  0  0  0  0
  7  9  1  0  0  0  0
  7 10  1  0  0  0  0
 10 11  1  0  0  0  0
 10 12  1  0  0  0  0
 10 13  1  0  0  0  0
 13 14  1  0  0  0  0
 13 15  1  0  0  0  0
 13 16  1  0  0  0  0
 16 17  1  0  0  0  0
 16 18  1  0  0  0  0
 16 19  1  0  0  0  0
 19 20  1  0  0  0  0
 19 21  1  0  0  0  0
 19 22  1  0  0  0  0
M  END
> <VConfSearch Rank>
428

> <Conf_Id>
51

> <Delta U+W>
-0.517

> <U+W>
-53.677

> <U>
7.026

> <W>
-60.703

> <W(PB)>
-63.007

> <W(SA)>
2.304

> <Valence>
7.638

> <Coulomb>
-1.488

> <VdW>
0.877

> <VdW6>
-7.165

> <VdW12>
8.042

> <Bond>
0.134

> <Angle>
2.513

> <Pdih>
4.990

> <Idih>
0.001

> <Tether>
0.000

$$$$
VeraChem MOL file


 22 21  0  0  0  0  0  0  0  0999 V2000     
   18.4883   20.2053   25.1909 C   0  0  0  0  0  0  0  0  0  0  0  0
   17.2807   20.3034   25.0958 O   0  5  0  0  0  0  0  0  0  0  0  0
   19.0434   19.5173   26.0248 O   0  0  0  0  0  0  0  0  0  0  0  0
   19.3532   21.0055   24.2210 C   0  0  0  0  0  0  0  0  0  0  0  0
   20.3641   21.0869   24.6385 H   0  0  0  0  0  0  0  0  0  0  0  0
   18.9444   22.0219   24.1790 H   0  0  0  0  0  0  0  0  0  0  0  0
   19.4112   20.4111   22.7898 C   0  0  0  0  0  0  0  0  0  0  0  0
   18.3902   20.3095   22.3962 H   0  0  0  0  0  0  0  0  0  0  0  0
   19.9350   21.1174   22.1315 H   0  0  0  0  0  0  0  0  0  0  0  0
   20.1286   19.0433   22.7430 C   0  0  0  0  0  0  0  0  0  0  0  0
   19.6002   18.3260   23.3862 H   0  0  0  0  0  0  0  0  0  0  0  0
   21.1439   19.1474   23.1496 H   0  0  0  0  0  0  0  0  0  0  0  0
   20.2026   18.4854   21.3054 C   0  0  0  0  0  0  0  0  0  0  0  0
   19.1869   18.3815   20.8996 H   0  0  0  0  0  0  0  0  0  0  0  0
   20.7332   19.1996   20.6609 H   0  0  0  0  0  0  0  0  0  0  0  0
   20.9182   17.1191   21.2581 C   0  0  0  0  0  0  0  0  0  0  0  0
   20.3892   16.4014   21.9004 H   0  0  0  0  0  0  0  0  0  0  0  0
   21.9353   17.2194   21.6617 H   0  0  0  0  0  0  0  0  0  0  0  0
   20.9896   16.5648   19.8211 C   0  0  0  0  0  0  0  0  0  0  0  0
   19.9839   16.4247   19.4037 H   0  0  0  0  0  0  0  0  0  0  0  0
   21.5011   15.5936   19.8060 H   0  0  0  0  0  0  0  0  0  0  0  0
   21.5416   17.2489   19.1632 H   0  0  0  0  0  0  0  0  0  0  0  0
  1  2  1  0  0  0  0
  1  3  2  0  0  0  0
  1  4  1  0  0  0  0
  4  5  1  0  0  0  0
  4  6  1  0  0  0  0
  4  7  1  0  0  0  0
  7  8  1  0  0  0  0
  7  9  1  0  0  0  0
  7 10  1  0  0  0  0
 10 11  1  0  0  0  0
 10 12  1  0  0  0  0
 10 13  1  0  0  0  0
 13 14  1  0  0  0  0
 13 15  1  0  0  0  0
 13 16  1  0  0  0  0
 16 17  1  0  0  0  0
 16 18  1  0  0  0  0
 16 19  1  0  0  0  0
 19 20  1  0  0  0  0
 19 21  1  0  0  0  0
 19 22  1  0  0  0  0
M  END
> <VConfSearch Rank>
429

> <Conf_Id>
43

> <Delta U+W>
-0.129

> <U+W>
-53.289

> <U>
7.937

> <W>
-61.225

> <W(PB)>
-63.523

> <W(SA)>
2.297

> <Valence>
7.358

> <Coulomb>
-0.022

> <VdW>
0.601

> <VdW6>
-7.363

> <VdW12>
7.964

> <Bond>
0.121

> <Angle>
2.425

> <Pdih>
4.811

> <Idih>
0.000

> <Tether>
0.000

$$$$
VeraChem MOL file


 22 21  0  0  0  0  0  0  0  0999 V2000     
   17.8608   16.6874   20.6284 C   0  0  0  0  0  0  0  0  0  0  0  0
   18.5538   15.9173   19.9932 O   0  5  0  0  0  0  0  0  0  0  0  0
   17.0382   17.4252   20.1228 O   0  0  0  0  0  0  0  0  0  0  0  0
   18.0211   16.7144   22.1459 C   0  0  0  0  0  0  0  0  0  0  0  0
   18.0443   15.6743   22.4918 H   0  0  0  0  0  0  0  0  0  0  0  0
   17.1274   17.1749   22.5843 H   0  0  0  0  0  0  0  0  0  0  0  0
   19.2964   17.4505   22.6325 C   0  0  0  0  0  0  0  0  0  0  0  0
   19.4021   17.3022   23.7157 H   0  0  0  0  0  0  0  0  0  0  0  0
   20.1802   16.9962   22.1633 H   0  0  0  0  0  0  0  0  0  0  0  0
   19.2617   18.9647   22.3267 C   0  0  0  0  0  0  0  0  0  0  0  0
   18.3696   19.4116   22.7867 H   0  0  0  0  0  0  0  0  0  0  0  0
   19.1732   19.1215   21.2427 H   0  0  0  0  0  0  0  0  0  0  0  0
   20.5256   19.6823   22.8472 C   0  0  0  0  0  0  0  0  0  0  0  0
   20.6148   19.5294   23.9315 H   0  0  0  0  0  0  0  0  0  0  0  0
   21.4172   19.2349   22.3867 H   0  0  0  0  0  0  0  0  0  0  0  0
   20.4920   21.1944   22.5415 C   0  0  0  0  0  0  0  0  0  0  0  0
   19.6023   21.6458   23.0020 H   0  0  0  0  0  0  0  0  0  0  0  0
   20.4047   21.3512   21.4574 H   0  0  0  0  0  0  0  0  0  0  0  0
   21.7561   21.9074   23.0622 C   0  0  0  0  0  0  0  0  0  0  0  0
   21.8515   21.7933   24.1499 H   0  0  0  0  0  0  0  0  0  0  0  0
   21.7154   22.9809   22.8363 H   0  0  0  0  0  0  0  0  0  0  0  0
   22.6599   21.4965   22.5936 H   0  0  0  0  0  0  0  0  0  0  0  0
  1  2  1  0  0  0  0
  1  3  2  0  0  0  0
  1  4  1  0  0  0  0
  4  5  1  0  0  0  0
  4  6  1  0  0  0  0
  4  7  1  0  0  0  0
  7  8  1  0  0  0  0
  7  9  1  0  0  0  0
  7 10  1  0  0  0  0
 10 11  1  0  0  0  0
 10 12  1  0  0  0  0
 10 13  1  0  0  0  0
 13 14  1  0  0  0  0
 13 15  1  0  0  0  0
 13 16  1  0  0  0  0
 16 17  1  0  0  0  0
 16 18  1  0  0  0  0
 16 19  1  0  0  0  0
 19 20  1  0  0  0  0
 19 21  1  0  0  0  0
 19 22  1  0  0  0  0
M  END
> <VConfSearch Rank>
430

> <Conf_Id>
44

> <Delta U+W>
-0.155

> <U+W>
-53.314

> <U>
7.937

> <W>
-61.252

> <W(PB)>
-63.556

> <W(SA)>
2.304

> <Valence>
7.358

> <Coulomb>
-0.021

> <VdW>
0.600

> <VdW6>
-7.363

> <VdW12>
7.964

> <Bond>
0.121

> <Angle>
2.425

> <Pdih>
4.811

> <Idih>
0.001

> <Tether>
0.000

$$$$
VeraChem MOL file


 22 21  0  0  0  0  0  0  0  0999 V2000     
   23.2060   19.4339   22.9065 C   0  0  0  0  0  0  0  0  0  0  0  0
   23.5311   20.6037   22.8540 O   0  5  0  0  0  0  0  0  0  0  0  0
   23.7855   18.5478   22.3100 O   0  0  0  0  0  0  0  0  0  0  0  0
   22.0165   19.0567   23.7852 C   0  0  0  0  0  0  0  0  0  0  0  0
   22.1407   19.5747   24.7435 H   0  0  0  0  0  0  0  0  0  0  0  0
   22.0640   17.9817   23.9971 H   0  0  0  0  0  0  0  0  0  0  0  0
   20.6381   19.4216   23.1748 C   0  0  0  0  0  0  0  0  0  0  0  0
   19.8662   19.2570   23.9371 H   0  0  0  0  0  0  0  0  0  0  0  0
   20.6204   20.4929   22.9309 H   0  0  0  0  0  0  0  0  0  0  0  0
   20.3093   18.5902   21.9116 C   0  0  0  0  0  0  0  0  0  0  0  0
   20.2859   17.5219   22.1666 H   0  0  0  0  0  0  0  0  0  0  0  0
   21.1172   18.7150   21.1776 H   0  0  0  0  0  0  0  0  0  0  0  0
   18.9753   18.9922   21.2387 C   0  0  0  0  0  0  0  0  0  0  0  0
   18.9991   20.0606   20.9840 H   0  0  0  0  0  0  0  0  0  0  0  0
   18.8883   18.4485   20.2880 H   0  0  0  0  0  0  0  0  0  0  0  0
   17.7310   18.6899   22.1040 C   0  0  0  0  0  0  0  0  0  0  0  0
   17.7570   19.2855   23.0259 H   0  0  0  0  0  0  0  0  0  0  0  0
   17.7362   17.6330   22.4042 H   0  0  0  0  0  0  0  0  0  0  0  0
   16.4255   18.9998   21.3443 C   0  0  0  0  0  0  0  0  0  0  0  0
   16.3815   20.0581   21.0553 H   0  0  0  0  0  0  0  0  0  0  0  0
   15.5517   18.7834   21.9726 H   0  0  0  0  0  0  0  0  0  0  0  0
   16.3466   18.3919   20.4335 H   0  0  0  0  0  0  0  0  0  0  0  0
  1  2  1  0  0  0  0
  1  3  2  0  0  0  0
  1  4  1  0  0  0  0
  4  5  1  0  0  0  0
  4  6  1  0  0  0  0
  4  7  1  0  0  0  0
  7  8  1  0  0  0  0
  7  9  1  0  0  0  0
  7 10  1  0  0  0  0
 10 11  1  0  0  0  0
 10 12  1  0  0  0  0
 10 13  1  0  0  0  0
 13 14  1  0  0  0  0
 13 15  1  0  0  0  0
 13 16  1  0  0  0  0
 16 17  1  0  0  0  0
 16 18  1  0  0  0  0
 16 19  1  0  0  0  0
 19 20  1  0  0  0  0
 19 21  1  0  0  0  0
 19 22  1  0  0  0  0
M  END
> <VConfSearch Rank>
431

> <Conf_Id>
53

> <Delta U+W>
0.723

> <U+W>
-52.436

> <U>
8.587

> <W>
-61.022

> <W(PB)>
-63.285

> <W(SA)>
2.263

> <Valence>
7.933

> <Coulomb>
-0.124

> <VdW>
0.778

> <VdW6>
-7.981

> <VdW12>
8.759

> <Bond>
0.160

> <Angle>
2.698

> <Pdih>
5.074

> <Idih>
0.001

> <Tether>
0.000

$$$$
VeraChem MOL file


 22 21  0  0  0  0  0  0  0  0999 V2000     
   21.1408   17.1894   19.8867 C   0  0  0  0  0  0  0  0  0  0  0  0
   22.3001   17.5278   19.7519 O   0  5  0  0  0  0  0  0  0  0  0  0
   20.6278   16.2827   19.2612 O   0  0  0  0  0  0  0  0  0  0  0  0
   20.2891   17.9282   20.9127 C   0  0  0  0  0  0  0  0  0  0  0  0
   19.2508   17.9244   20.5603 H   0  0  0  0  0  0  0  0  0  0  0  0
   20.6271   18.9704   20.9349 H   0  0  0  0  0  0  0  0  0  0  0  0
   20.3776   17.3033   22.3279 C   0  0  0  0  0  0  0  0  0  0  0  0
   20.1665   16.2277   22.2515 H   0  0  0  0  0  0  0  0  0  0  0  0
   21.4091   17.3885   22.6966 H   0  0  0  0  0  0  0  0  0  0  0  0
   19.4038   17.9227   23.3617 C   0  0  0  0  0  0  0  0  0  0  0  0
   19.5252   17.3692   24.3030 H   0  0  0  0  0  0  0  0  0  0  0  0
   18.3642   17.7543   23.0490 H   0  0  0  0  0  0  0  0  0  0  0  0
   19.6411   19.4263   23.6522 C   0  0  0  0  0  0  0  0  0  0  0  0
   19.4484   19.6094   24.7182 H   0  0  0  0  0  0  0  0  0  0  0  0
   20.6965   19.6812   23.4845 H   0  0  0  0  0  0  0  0  0  0  0  0
   18.7238   20.3616   22.8309 C   0  0  0  0  0  0  0  0  0  0  0  0
   17.6724   20.1328   23.0530 H   0  0  0  0  0  0  0  0  0  0  0  0
   18.8615   20.1918   21.7564 H   0  0  0  0  0  0  0  0  0  0  0  0
   18.9993   21.8451   23.1483 C   0  0  0  0  0  0  0  0  0  0  0  0
   18.8304   22.0575   24.2121 H   0  0  0  0  0  0  0  0  0  0  0  0
   18.3362   22.4955   22.5632 H   0  0  0  0  0  0  0  0  0  0  0  0
   20.0363   22.1120   22.9056 H   0  0  0  0  0  0  0  0  0  0  0  0
  1  2  1  0  0  0  0
  1  3  2  0  0  0  0
  1  4  1  0  0  0  0
  4  5  1  0  0  0  0
  4  6  1  0  0  0  0
  4  7  1  0  0  0  0
  7  8  1  0  0  0  0
  7  9  1  0  0  0  0
  7 10  1  0  0  0  0
 10 11  1  0  0  0  0
 10 12  1  0  0  0  0
 10 13  1  0  0  0  0
 13 14  1  0  0  0  0
 13 15  1  0  0  0  0
 13 16  1  0  0  0  0
 16 17  1  0  0  0  0
 16 18  1  0  0  0  0
 16 19  1  0  0  0  0
 19 20  1  0  0  0  0
 19 21  1  0  0  0  0
 19 22  1  0  0  0  0
M  END
> <VConfSearch Rank>
432

> <Conf_Id>
5

> <Delta U+W>
2.167

> <U+W>
-50.993

> <U>
10.045

> <W>
-61.037

> <W(PB)>
-63.303

> <W(SA)>
2.266

> <Valence>
10.100

> <Coulomb>
-0.883

> <VdW>
0.828

> <VdW6>
-8.177

> <VdW12>
9.005

> <Bond>
0.182

> <Angle>
2.988

> <Pdih>
6.930

> <Idih>
0.001

> <Tether>
0.000

$$$$
VeraChem MOL file


 22 21  0  0  0  0  0  0  0  0999 V2000     
   19.0681   19.0706   19.1080 C   0  0  0  0  0  0  0  0  0  0  0  0
   18.2346   19.9409   18.9516 O   0  5  0  0  0  0  0  0  0  0  0  0
   19.4595   18.3459   18.2147 O   0  0  0  0  0  0  0  0  0  0  0  0
   19.6374   18.8611   20.5066 C   0  0  0  0  0  0  0  0  0  0  0  0
   19.6778   19.8399   20.9977 H   0  0  0  0  0  0  0  0  0  0  0  0
   20.6674   18.4991   20.4048 H   0  0  0  0  0  0  0  0  0  0  0  0
   18.8010   17.8683   21.3526 C   0  0  0  0  0  0  0  0  0  0  0  0
   17.7969   18.2854   21.5112 H   0  0  0  0  0  0  0  0  0  0  0  0
   18.6619   16.9440   20.7749 H   0  0  0  0  0  0  0  0  0  0  0  0
   19.4333   17.5030   22.7191 C   0  0  0  0  0  0  0  0  0  0  0  0
   20.3952   16.9947   22.5661 H   0  0  0  0  0  0  0  0  0  0  0  0
   18.7782   16.7631   23.1991 H   0  0  0  0  0  0  0  0  0  0  0  0
   19.6051   18.6977   23.6911 C   0  0  0  0  0  0  0  0  0  0  0  0
   18.8469   19.4652   23.4837 H   0  0  0  0  0  0  0  0  0  0  0  0
   19.4112   18.3452   24.7135 H   0  0  0  0  0  0  0  0  0  0  0  0
   21.0216   19.3167   23.6573 C   0  0  0  0  0  0  0  0  0  0  0  0
   21.2706   19.6569   22.6450 H   0  0  0  0  0  0  0  0  0  0  0  0
   21.7636   18.5511   23.9228 H   0  0  0  0  0  0  0  0  0  0  0  0
   21.1435   20.5033   24.6342 C   0  0  0  0  0  0  0  0  0  0  0  0
   20.4346   21.3002   24.3736 H   0  0  0  0  0  0  0  0  0  0  0  0
   22.1557   20.9270   24.6039 H   0  0  0  0  0  0  0  0  0  0  0  0
   20.9394   20.1863   25.6653 H   0  0  0  0  0  0  0  0  0  0  0  0
  1  2  1  0  0  0  0
  1  3  2  0  0  0  0
  1  4  1  0  0  0  0
  4  5  1  0  0  0  0
  4  6  1  0  0  0  0
  4  7  1  0  0  0  0
  7  8  1  0  0  0  0
  7  9  1  0  0  0  0
  7 10  1  0  0  0  0
 10 11  1  0  0  0  0
 10 12  1  0  0  0  0
 10 13  1  0  0  0  0
 13 14  1  0  0  0  0
 13 15  1  0  0  0  0
 13 16  1  0  0  0  0
 16 17  1  0  0  0  0
 16 18  1  0  0  0  0
 16 19  1  0  0  0  0
 19 20  1  0  0  0  0
 19 21  1  0  0  0  0
 19 22  1  0  0  0  0
M  END
> <VConfSearch Rank>
433

> <Conf_Id>
6

> <Delta U+W>
2.118

> <U+W>
-51.042

> <U>
10.045

> <W>
-61.086

> <W(PB)>
-63.356

> <W(SA)>
2.270

> <Valence>
10.100

> <Coulomb>
-0.883

> <VdW>
0.828

> <VdW6>
-8.177

> <VdW12>
9.004

> <Bond>
0.182

> <Angle>
2.988

> <Pdih>
6.930

> <Idih>
0.001

> <Tether>
0.000

$$$$
VeraChem MOL file


 22 21  0  0  0  0  0  0  0  0999 V2000     
   20.1044   21.5650   21.9640 C   0  0  0  0  0  0  0  0  0  0  0  0
   21.2020   21.8413   22.4072 O   0  5  0  0  0  0  0  0  0  0  0  0
   19.0672   22.0041   22.4207 O   0  0  0  0  0  0  0  0  0  0  0  0
   20.0257   20.6760   20.7242 C   0  0  0  0  0  0  0  0  0  0  0  0
   20.5261   21.2257   19.9187 H   0  0  0  0  0  0  0  0  0  0  0  0
   18.9753   20.5710   20.4268 H   0  0  0  0  0  0  0  0  0  0  0  0
   20.6872   19.2764   20.8680 C   0  0  0  0  0  0  0  0  0  0  0  0
   20.8959   18.8951   19.8593 H   0  0  0  0  0  0  0  0  0  0  0  0
   21.6638   19.3726   21.3624 H   0  0  0  0  0  0  0  0  0  0  0  0
   19.8223   18.2214   21.6012 C   0  0  0  0  0  0  0  0  0  0  0  0
   20.3186   17.2460   21.5052 H   0  0  0  0  0  0  0  0  0  0  0  0
   18.8511   18.1244   21.0969 H   0  0  0  0  0  0  0  0  0  0  0  0
   19.6010   18.5200   23.1013 C   0  0  0  0  0  0  0  0  0  0  0  0
   20.5675   18.7185   23.5846 H   0  0  0  0  0  0  0  0  0  0  0  0
   18.9925   19.4260   23.2156 H   0  0  0  0  0  0  0  0  0  0  0  0
   18.8952   17.3495   23.8180 C   0  0  0  0  0  0  0  0  0  0  0  0
   19.4979   16.4361   23.7196 H   0  0  0  0  0  0  0  0  0  0  0  0
   17.9290   17.1486   23.3346 H   0  0  0  0  0  0  0  0  0  0  0  0
   18.6672   17.6533   25.3123 C   0  0  0  0  0  0  0  0  0  0  0  0
   19.6210   17.8277   25.8273 H   0  0  0  0  0  0  0  0  0  0  0  0
   18.1638   16.8119   25.8061 H   0  0  0  0  0  0  0  0  0  0  0  0
   18.0407   18.5459   25.4401 H   0  0  0  0  0  0  0  0  0  0  0  0
  1  2  1  0  0  0  0
  1  3  2  0  0  0  0
  1  4  1  0  0  0  0
  4  5  1  0  0  0  0
  4  6  1  0  0  0  0
  4  7  1  0  0  0  0
  7  8  1  0  0  0  0
  7  9  1  0  0  0  0
  7 10  1  0  0  0  0
 10 11  1  0  0  0  0
 10 12  1  0  0  0  0
 10 13  1  0  0  0  0
 13 14  1  0  0  0  0
 13 15  1  0  0  0  0
 13 16  1  0  0  0  0
 16 17  1  0  0  0  0
 16 18  1  0  0  0  0
 16 19  1  0  0  0  0
 19 20  1  0  0  0  0
 19 21  1  0  0  0  0
 19 22  1  0  0  0  0
M  END
> <VConfSearch Rank>
434

> <Conf_Id>
8

> <Delta U+W>
1.886

> <U+W>
-51.274

> <U>
11.237

> <W>
-62.510

> <W(PB)>
-64.777

> <W(SA)>
2.267

> <Valence>
9.029

> <Coulomb>
1.667

> <VdW>
0.540

> <VdW6>
-8.825

> <VdW12>
9.365

> <Bond>
0.186

> <Angle>
3.195

> <Pdih>
5.642

> <Idih>
0.007

> <Tether>
0.000

$$$$
VeraChem MOL file


 22 21  0  0  0  0  0  0  0  0999 V2000     
   17.9468   19.7812   20.0351 C   0  0  0  0  0  0  0  0  0  0  0  0
   17.2114   18.8373   20.2476 O   0  5  0  0  0  0  0  0  0  0  0  0
   18.3689   20.0693   18.9324 O   0  0  0  0  0  0  0  0  0  0  0  0
   18.3387   20.6722   21.2106 C   0  0  0  0  0  0  0  0  0  0  0  0
   17.6716   20.4568   22.0527 H   0  0  0  0  0  0  0  0  0  0  0  0
   18.1376   21.7084   20.9145 H   0  0  0  0  0  0  0  0  0  0  0  0
   19.8261   20.5412   21.6392 C   0  0  0  0  0  0  0  0  0  0  0  0
   20.4620   20.8412   20.7948 H   0  0  0  0  0  0  0  0  0  0  0  0
   20.0324   21.2553   22.4478 H   0  0  0  0  0  0  0  0  0  0  0  0
   20.2433   19.1210   22.0948 C   0  0  0  0  0  0  0  0  0  0  0  0
   21.3250   19.1290   22.2792 H   0  0  0  0  0  0  0  0  0  0  0  0
   20.0735   18.4049   21.2791 H   0  0  0  0  0  0  0  0  0  0  0  0
   19.5061   18.6410   23.3689 C   0  0  0  0  0  0  0  0  0  0  0  0
   19.6572   19.3645   24.1814 H   0  0  0  0  0  0  0  0  0  0  0  0
   18.4265   18.6101   23.1728 H   0  0  0  0  0  0  0  0  0  0  0  0
   19.9449   17.2345   23.8394 C   0  0  0  0  0  0  0  0  0  0  0  0
   19.8092   16.5116   23.0231 H   0  0  0  0  0  0  0  0  0  0  0  0
   19.2793   16.9127   24.6521 H   0  0  0  0  0  0  0  0  0  0  0  0
   21.4032   17.1826   24.3448 C   0  0  0  0  0  0  0  0  0  0  0  0
   22.1166   17.3783   23.5348 H   0  0  0  0  0  0  0  0  0  0  0  0
   21.6316   16.1902   24.7547 H   0  0  0  0  0  0  0  0  0  0  0  0
   21.5707   17.9224   25.1383 H   0  0  0  0  0  0  0  0  0  0  0  0
  1  2  1  0  0  0  0
  1  3  2  0  0  0  0
  1  4  1  0  0  0  0
  4  5  1  0  0  0  0
  4  6  1  0  0  0  0
  4  7  1  0  0  0  0
  7  8  1  0  0  0  0
  7  9  1  0  0  0  0
  7 10  1  0  0  0  0
 10 11  1  0  0  0  0
 10 12  1  0  0  0  0
 10 13  1  0  0  0  0
 13 14  1  0  0  0  0
 13 15  1  0  0  0  0
 13 16  1  0  0  0  0
 16 17  1  0  0  0  0
 16 18  1  0  0  0  0
 16 19  1  0  0  0  0
 19 20  1  0  0  0  0
 19 21  1  0  0  0  0
 19 22  1  0  0  0  0
M  END
> <VConfSearch Rank>
435

> <Conf_Id>
93

> <Delta U+W>
1.836

> <U+W>
-51.323

> <U>
10.427

> <W>
-61.751

> <W(PB)>
-63.980

> <W(SA)>
2.230

> <Valence>
8.446

> <Coulomb>
1.306

> <VdW>
0.676

> <VdW6>
-8.928

> <VdW12>
9.604

> <Bond>
0.209

> <Angle>
3.066

> <Pdih>
5.170

> <Idih>
0.001

> <Tether>
0.000

$$$$
VeraChem MOL file


 22 21  0  0  0  0  0  0  0  0999 V2000     
   18.7756   18.7714   25.3717 C   0  0  0  0  0  0  0  0  0  0  0  0
   18.3432   17.7432   25.8546 O   0  5  0  0  0  0  0  0  0  0  0  0
   18.1257   19.7937   25.2751 O   0  0  0  0  0  0  0  0  0  0  0  0
   20.2232   18.7856   24.8885 C   0  0  0  0  0  0  0  0  0  0  0  0
   20.8406   18.3813   25.6990 H   0  0  0  0  0  0  0  0  0  0  0  0
   20.5375   19.8263   24.7507 H   0  0  0  0  0  0  0  0  0  0  0  0
   20.4700   17.9604   23.5957 C   0  0  0  0  0  0  0  0  0  0  0  0
   21.5414   17.9794   23.3550 H   0  0  0  0  0  0  0  0  0  0  0  0
   20.2190   16.9099   23.7972 H   0  0  0  0  0  0  0  0  0  0  0  0
   19.6622   18.4362   22.3629 C   0  0  0  0  0  0  0  0  0  0  0  0
   18.5869   18.3867   22.5823 H   0  0  0  0  0  0  0  0  0  0  0  0
   19.8440   17.7273   21.5452 H   0  0  0  0  0  0  0  0  0  0  0  0
   20.0319   19.8661   21.8981 C   0  0  0  0  0  0  0  0  0  0  0  0
   19.8250   20.5756   22.7097 H   0  0  0  0  0  0  0  0  0  0  0  0
   21.1101   19.9250   21.6966 H   0  0  0  0  0  0  0  0  0  0  0  0
   19.2454   20.3286   20.6493 C   0  0  0  0  0  0  0  0  0  0  0  0
   19.4577   21.3924   20.4749 H   0  0  0  0  0  0  0  0  0  0  0  0
   18.1663   20.2558   20.8430 H   0  0  0  0  0  0  0  0  0  0  0  0
   19.6004   19.5375   19.3714 C   0  0  0  0  0  0  0  0  0  0  0  0
   19.2936   18.4873   19.4506 H   0  0  0  0  0  0  0  0  0  0  0  0
   20.6805   19.5679   19.1778 H   0  0  0  0  0  0  0  0  0  0  0  0
   19.0890   19.9672   18.5003 H   0  0  0  0  0  0  0  0  0  0  0  0
  1  2  1  0  0  0  0
  1  3  2  0  0  0  0
  1  4  1  0  0  0  0
  4  5  1  0  0  0  0
  4  6  1  0  0  0  0
  4  7  1  0  0  0  0
  7  8  1  0  0  0  0
  7  9  1  0  0  0  0
  7 10  1  0  0  0  0
 10 11  1  0  0  0  0
 10 12  1  0  0  0  0
 10 13  1  0  0  0  0
 13 14  1  0  0  0  0
 13 15  1  0  0  0  0
 13 16  1  0  0  0  0
 16 17  1  0  0  0  0
 16 18  1  0  0  0  0
 16 19  1  0  0  0  0
 19 20  1  0  0  0  0
 19 21  1  0  0  0  0
 19 22  1  0  0  0  0
M  END
> <VConfSearch Rank>
436

> <Conf_Id>
70

> <Delta U+W>
1.803

> <U+W>
-51.356

> <U>
10.428

> <W>
-61.784

> <W(PB)>
-64.014

> <W(SA)>
2.230

> <Valence>
8.445

> <Coulomb>
1.306

> <VdW>
0.676

> <VdW6>
-8.929

> <VdW12>
9.605

> <Bond>
0.209

> <Angle>
3.066

> <Pdih>
5.170

> <Idih>
0.001

> <Tether>
0.000

$$$$
VeraChem MOL file


 22 21  0  0  0  0  0  0  0  0999 V2000     
   22.1763   16.8104   22.2749 C   0  0  0  0  0  0  0  0  0  0  0  0
   21.7200   15.8952   21.6183 O   0  5  0  0  0  0  0  0  0  0  0  0
   22.6196   16.6762   23.3984 O   0  0  0  0  0  0  0  0  0  0  0  0
   22.2127   18.1995   21.6439 C   0  0  0  0  0  0  0  0  0  0  0  0
   22.5853   18.0851   20.6192 H   0  0  0  0  0  0  0  0  0  0  0  0
   22.9480   18.8095   22.1826 H   0  0  0  0  0  0  0  0  0  0  0  0
   20.8374   18.9156   21.6181 C   0  0  0  0  0  0  0  0  0  0  0  0
   20.9283   19.8420   21.0352 H   0  0  0  0  0  0  0  0  0  0  0  0
   20.1147   18.2782   21.0916 H   0  0  0  0  0  0  0  0  0  0  0  0
   20.3192   19.2533   23.0366 C   0  0  0  0  0  0  0  0  0  0  0  0
   21.0940   19.8160   23.5749 H   0  0  0  0  0  0  0  0  0  0  0  0
   20.1584   18.3271   23.6055 H   0  0  0  0  0  0  0  0  0  0  0  0
   19.0173   20.0891   23.0341 C   0  0  0  0  0  0  0  0  0  0  0  0
   18.7922   20.3853   24.0677 H   0  0  0  0  0  0  0  0  0  0  0  0
   19.1778   21.0194   22.4724 H   0  0  0  0  0  0  0  0  0  0  0  0
   17.8014   19.3326   22.4531 C   0  0  0  0  0  0  0  0  0  0  0  0
   17.6731   18.3772   22.9803 H   0  0  0  0  0  0  0  0  0  0  0  0
   17.9741   19.0944   21.3954 H   0  0  0  0  0  0  0  0  0  0  0  0
   16.5078   20.1629   22.5753 C   0  0  0  0  0  0  0  0  0  0  0  0
   16.2824   20.3875   23.6261 H   0  0  0  0  0  0  0  0  0  0  0  0
   15.6548   19.6138   22.1559 H   0  0  0  0  0  0  0  0  0  0  0  0
   16.5989   21.1133   22.0333 H   0  0  0  0  0  0  0  0  0  0  0  0
  1  2  1  0  0  0  0
  1  3  2  0  0  0  0
  1  4  1  0  0  0  0
  4  5  1  0  0  0  0
  4  6  1  0  0  0  0
  4  7  1  0  0  0  0
  7  8  1  0  0  0  0
  7  9  1  0  0  0  0
  7 10  1  0  0  0  0
 10 11  1  0  0  0  0
 10 12  1  0  0  0  0
 10 13  1  0  0  0  0
 13 14  1  0  0  0  0
 13 15  1  0  0  0  0
 13 16  1  0  0  0  0
 16 17  1  0  0  0  0
 16 18  1  0  0  0  0
 16 19  1  0  0  0  0
 19 20  1  0  0  0  0
 19 21  1  0  0  0  0
 19 22  1  0  0  0  0
M  END
> <VConfSearch Rank>
437

> <Conf_Id>
85

> <Delta U+W>
0.707

> <U+W>
-52.452

> <U>
8.925

> <W>
-61.378

> <W(PB)>
-63.661

> <W(SA)>
2.283

> <Valence>
7.881

> <Coulomb>
0.349

> <VdW>
0.695

> <VdW6>
-8.049

> <VdW12>
8.743

> <Bond>
0.156

> <Angle>
2.660

> <Pdih>
5.064

> <Idih>
0.001

> <Tether>
0.000

$$$$
VeraChem MOL file


 22 21  0  0  0  0  0  0  0  0999 V2000     
   20.6812   21.3409   20.2847 C   0  0  0  0  0  0  0  0  0  0  0  0
   21.8834   21.4941   20.1942 O   0  5  0  0  0  0  0  0  0  0  0  0
   19.9364   21.2878   19.3258 O   0  0  0  0  0  0  0  0  0  0  0  0
   20.0684   21.2324   21.6783 C   0  0  0  0  0  0  0  0  0  0  0  0
   19.1900   21.8881   21.7008 H   0  0  0  0  0  0  0  0  0  0  0  0
   20.7825   21.6331   22.4079 H   0  0  0  0  0  0  0  0  0  0  0  0
   19.6488   19.7928   22.0748 C   0  0  0  0  0  0  0  0  0  0  0  0
   19.0830   19.8441   23.0135 H   0  0  0  0  0  0  0  0  0  0  0  0
   18.9710   19.3866   21.3114 H   0  0  0  0  0  0  0  0  0  0  0  0
   20.8600   18.8493   22.2590 C   0  0  0  0  0  0  0  0  0  0  0  0
   21.4872   19.2173   23.0823 H   0  0  0  0  0  0  0  0  0  0  0  0
   21.4861   18.8856   21.3570 H   0  0  0  0  0  0  0  0  0  0  0  0
   20.4803   17.3704   22.5218 C   0  0  0  0  0  0  0  0  0  0  0  0
   19.9313   16.9640   21.6613 H   0  0  0  0  0  0  0  0  0  0  0  0
   21.4145   16.7951   22.5778 H   0  0  0  0  0  0  0  0  0  0  0  0
   19.6857   17.1266   23.8292 C   0  0  0  0  0  0  0  0  0  0  0  0
   19.9270   17.8996   24.5718 H   0  0  0  0  0  0  0  0  0  0  0  0
   20.0117   16.1722   24.2653 H   0  0  0  0  0  0  0  0  0  0  0  0
   18.1583   17.0530   23.6087 C   0  0  0  0  0  0  0  0  0  0  0  0
   17.7611   17.9832   23.1870 H   0  0  0  0  0  0  0  0  0  0  0  0
   17.6417   16.8686   24.5595 H   0  0  0  0  0  0  0  0  0  0  0  0
   17.9022   16.2345   22.9235 H   0  0  0  0  0  0  0  0  0  0  0  0
  1  2  1  0  0  0  0
  1  3  2  0  0  0  0
  1  4  1  0  0  0  0
  4  5  1  0  0  0  0
  4  6  1  0  0  0  0
  4  7  1  0  0  0  0
  7  8  1  0  0  0  0
  7  9  1  0  0  0  0
  7 10  1  0  0  0  0
 10 11  1  0  0  0  0
 10 12  1  0  0  0  0
 10 13  1  0  0  0  0
 13 14  1  0  0  0  0
 13 15  1  0  0  0  0
 13 16  1  0  0  0  0
 16 17  1  0  0  0  0
 16 18  1  0  0  0  0
 16 19  1  0  0  0  0
 19 20  1  0  0  0  0
 19 21  1  0  0  0  0
 19 22  1  0  0  0  0
M  END
> <VConfSearch Rank>
438

> <Conf_Id>
82

> <Delta U+W>
3.438

> <U+W>
-49.721

> <U>
11.773

> <W>
-61.495

> <W(PB)>
-63.749

> <W(SA)>
2.254

> <Valence>
10.419

> <Coulomb>
0.565

> <VdW>
0.789

> <VdW6>
-8.847

> <VdW12>
9.636

> <Bond>
0.200

> <Angle>
3.187

> <Pdih>
7.032

> <Idih>
0.001

> <Tether>
0.000

$$$$
VeraChem MOL file


 22 21  0  0  0  0  0  0  0  0999 V2000     
   18.6103   19.4402   19.3628 C   0  0  0  0  0  0  0  0  0  0  0  0
   19.5017   19.3667   18.5401 O   0  5  0  0  0  0  0  0  0  0  0  0
   17.5255   18.9092   19.2275 O   0  0  0  0  0  0  0  0  0  0  0  0
   18.8605   20.2639   20.6230 C   0  0  0  0  0  0  0  0  0  0  0  0
   17.8937   20.5155   21.0756 H   0  0  0  0  0  0  0  0  0  0  0  0
   19.3197   21.2089   20.3098 H   0  0  0  0  0  0  0  0  0  0  0  0
   19.7737   19.5659   21.6644 C   0  0  0  0  0  0  0  0  0  0  0  0
   20.7196   19.2775   21.1855 H   0  0  0  0  0  0  0  0  0  0  0  0
   20.0187   20.2914   22.4503 H   0  0  0  0  0  0  0  0  0  0  0  0
   19.1076   18.3254   22.3035 C   0  0  0  0  0  0  0  0  0  0  0  0
   18.7628   17.6510   21.5079 H   0  0  0  0  0  0  0  0  0  0  0  0
   18.2084   18.6364   22.8525 H   0  0  0  0  0  0  0  0  0  0  0  0
   20.0354   17.5206   23.2479 C   0  0  0  0  0  0  0  0  0  0  0  0
   19.4735   16.6413   23.5914 H   0  0  0  0  0  0  0  0  0  0  0  0
   20.8929   17.1255   22.6863 H   0  0  0  0  0  0  0  0  0  0  0  0
   20.5233   18.2978   24.4960 C   0  0  0  0  0  0  0  0  0  0  0  0
   20.5668   17.6040   25.3469 H   0  0  0  0  0  0  0  0  0  0  0  0
   19.7949   19.0730   24.7714 H   0  0  0  0  0  0  0  0  0  0  0  0
   21.9260   18.9200   24.3161 C   0  0  0  0  0  0  0  0  0  0  0  0
   22.6742   18.1428   24.1128 H   0  0  0  0  0  0  0  0  0  0  0  0
   22.2312   19.4490   25.2282 H   0  0  0  0  0  0  0  0  0  0  0  0
   21.9514   19.6379   23.4885 H   0  0  0  0  0  0  0  0  0  0  0  0
  1  2  1  0  0  0  0
  1  3  2  0  0  0  0
  1  4  1  0  0  0  0
  4  5  1  0  0  0  0
  4  6  1  0  0  0  0
  4  7  1  0  0  0  0
  7  8  1  0  0  0  0
  7  9  1  0  0  0  0
  7 10  1  0  0  0  0
 10 11  1  0  0  0  0
 10 12  1  0  0  0  0
 10 13  1  0  0  0  0
 13 14  1  0  0  0  0
 13 15  1  0  0  0  0
 13 16  1  0  0  0  0
 16 17  1  0  0  0  0
 16 18  1  0  0  0  0
 16 19  1  0  0  0  0
 19 20  1  0  0  0  0
 19 21  1  0  0  0  0
 19 22  1  0  0  0  0
M  END
> <VConfSearch Rank>
439

> <Conf_Id>
94

> <Delta U+W>
3.471

> <U+W>
-49.688

> <U>
11.773

> <W>
-61.461

> <W(PB)>
-63.710

> <W(SA)>
2.248

> <Valence>
10.419

> <Coulomb>
0.566

> <VdW>
0.789

> <VdW6>
-8.847

> <VdW12>
9.636

> <Bond>
0.200

> <Angle>
3.187

> <Pdih>
7.032

> <Idih>
0.001

> <Tether>
0.000

$$$$
VeraChem MOL file


 22 21  0  0  0  0  0  0  0  0999 V2000     
   21.5844   16.8582   20.6415 C   0  0  0  0  0  0  0  0  0  0  0  0
   22.5476   16.1777   20.9347 O   0  5  0  0  0  0  0  0  0  0  0  0
   21.3496   17.2404   19.5122 O   0  0  0  0  0  0  0  0  0  0  0  0
   20.6288   17.2708   21.7554 C   0  0  0  0  0  0  0  0  0  0  0  0
   20.6075   16.4676   22.5014 H   0  0  0  0  0  0  0  0  0  0  0  0
   19.6240   17.3415   21.3238 H   0  0  0  0  0  0  0  0  0  0  0  0
   21.0294   18.6113   22.4238 C   0  0  0  0  0  0  0  0  0  0  0  0
   22.0685   18.5353   22.7725 H   0  0  0  0  0  0  0  0  0  0  0  0
   21.0187   19.4136   21.6741 H   0  0  0  0  0  0  0  0  0  0  0  0
   20.1316   18.9947   23.6269 C   0  0  0  0  0  0  0  0  0  0  0  0
   20.5127   19.9228   24.0728 H   0  0  0  0  0  0  0  0  0  0  0  0
   20.2353   18.2268   24.4054 H   0  0  0  0  0  0  0  0  0  0  0  0
   18.6249   19.1658   23.2984 C   0  0  0  0  0  0  0  0  0  0  0  0
   18.2038   18.1947   23.0070 H   0  0  0  0  0  0  0  0  0  0  0  0
   18.0970   19.4537   24.2177 H   0  0  0  0  0  0  0  0  0  0  0  0
   18.3048   20.2032   22.1943 C   0  0  0  0  0  0  0  0  0  0  0  0
   17.2184   20.2174   22.0314 H   0  0  0  0  0  0  0  0  0  0  0  0
   18.7509   19.8905   21.2407 H   0  0  0  0  0  0  0  0  0  0  0  0
   18.7733   21.6319   22.5454 C   0  0  0  0  0  0  0  0  0  0  0  0
   18.3516   21.9588   23.5047 H   0  0  0  0  0  0  0  0  0  0  0  0
   18.4509   22.3426   21.7737 H   0  0  0  0  0  0  0  0  0  0  0  0
   19.8671   21.6871   22.6130 H   0  0  0  0  0  0  0  0  0  0  0  0
  1  2  1  0  0  0  0
  1  3  2  0  0  0  0
  1  4  1  0  0  0  0
  4  5  1  0  0  0  0
  4  6  1  0  0  0  0
  4  7  1  0  0  0  0
  7  8  1  0  0  0  0
  7  9  1  0  0  0  0
  7 10  1  0  0  0  0
 10 11  1  0  0  0  0
 10 12  1  0  0  0  0
 10 13  1  0  0  0  0
 13 14  1  0  0  0  0
 13 15  1  0  0  0  0
 13 16  1  0  0  0  0
 16 17  1  0  0  0  0
 16 18  1  0  0  0  0
 16 19  1  0  0  0  0
 19 20  1  0  0  0  0
 19 21  1  0  0  0  0
 19 22  1  0  0  0  0
M  END
> <VConfSearch Rank>
440

> <Conf_Id>
56

> <Delta U+W>
0.853

> <U+W>
-52.307

> <U>
8.874

> <W>
-61.181

> <W(PB)>
-63.413

> <W(SA)>
2.232

> <Valence>
8.479

> <Coulomb>
-0.357

> <VdW>
0.753

> <VdW6>
-9.081

> <VdW12>
9.833

> <Bond>
0.221

> <Angle>
3.208

> <Pdih>
5.050

> <Idih>
0.000

> <Tether>
0.000

$$$$
VeraChem MOL file


 22 21  0  0  0  0  0  0  0  0999 V2000     
   23.2120   17.3284   20.6287 C   0  0  0  0  0  0  0  0  0  0  0  0
   23.8940   18.2785   20.9614 O   0  5  0  0  0  0  0  0  0  0  0  0
   23.6611   16.3603   20.0482 O   0  0  0  0  0  0  0  0  0  0  0  0
   21.7148   17.3223   20.9414 C   0  0  0  0  0  0  0  0  0  0  0  0
   21.5090   16.4260   21.5382 H   0  0  0  0  0  0  0  0  0  0  0  0
   21.1826   17.2037   19.9903 H   0  0  0  0  0  0  0  0  0  0  0  0
   21.1879   18.5791   21.6840 C   0  0  0  0  0  0  0  0  0  0  0  0
   21.7295   18.6955   22.6329 H   0  0  0  0  0  0  0  0  0  0  0  0
   21.4025   19.4740   21.0835 H   0  0  0  0  0  0  0  0  0  0  0  0
   19.6710   18.4897   21.9591 C   0  0  0  0  0  0  0  0  0  0  0  0
   19.4589   17.5943   22.5595 H   0  0  0  0  0  0  0  0  0  0  0  0
   19.1317   18.3731   21.0090 H   0  0  0  0  0  0  0  0  0  0  0  0
   19.1490   19.7408   22.6977 C   0  0  0  0  0  0  0  0  0  0  0  0
   19.6880   19.8578   23.6479 H   0  0  0  0  0  0  0  0  0  0  0  0
   19.3609   20.6364   22.0977 H   0  0  0  0  0  0  0  0  0  0  0  0
   17.6332   19.6521   22.9731 C   0  0  0  0  0  0  0  0  0  0  0  0
   17.4176   18.7583   23.5749 H   0  0  0  0  0  0  0  0  0  0  0  0
   17.0904   19.5369   22.0246 H   0  0  0  0  0  0  0  0  0  0  0  0
   17.1158   20.9033   23.7106 C   0  0  0  0  0  0  0  0  0  0  0  0
   17.6200   21.0254   24.6783 H   0  0  0  0  0  0  0  0  0  0  0  0
   16.0372   20.8235   23.8982 H   0  0  0  0  0  0  0  0  0  0  0  0
   17.2903   21.8098   23.1163 H   0  0  0  0  0  0  0  0  0  0  0  0
  1  2  1  0  0  0  0
  1  3  2  0  0  0  0
  1  4  1  0  0  0  0
  4  5  1  0  0  0  0
  4  6  1  0  0  0  0
  4  7  1  0  0  0  0
  7  8  1  0  0  0  0
  7  9  1  0  0  0  0
  7 10  1  0  0  0  0
 10 11  1  0  0  0  0
 10 12  1  0  0  0  0
 10 13  1  0  0  0  0
 13 14  1  0  0  0  0
 13 15  1  0  0  0  0
 13 16  1  0  0  0  0
 16 17  1  0  0  0  0
 16 18  1  0  0  0  0
 16 19  1  0  0  0  0
 19 20  1  0  0  0  0
 19 21  1  0  0  0  0
 19 22  1  0  0  0  0
M  END
> <VConfSearch Rank>
441

> <Conf_Id>
0

> <Delta U+W>
0.000

> <U+W>
-53.159

> <U>
6.763

> <W>
-59.922

> <W(PB)>
-62.256

> <W(SA)>
2.334

> <Valence>
7.600

> <Coulomb>
-2.139

> <VdW>
1.302

> <VdW6>
-6.786

> <VdW12>
8.088

> <Bond>
0.134

> <Angle>
2.720

> <Pdih>
4.746

> <Idih>
0.000

> <Tether>
0.000

$$$$
VeraChem MOL file


 22 21  0  0  0  0  0  0  0  0999 V2000     
   20.2583   22.9757   22.1078 C   0  0  0  0  0  0  0  0  0  0  0  0
   19.8588   23.5100   21.0922 O   0  5  0  0  0  0  0  0  0  0  0  0
   21.2054   23.3796   22.7530 O   0  0  0  0  0  0  0  0  0  0  0  0
   19.5457   21.7159   22.5867 C   0  0  0  0  0  0  0  0  0  0  0  0
   18.4870   21.7985   22.3130 H   0  0  0  0  0  0  0  0  0  0  0  0
   19.5965   21.6912   23.6819 H   0  0  0  0  0  0  0  0  0  0  0  0
   20.1515   20.4198   21.9941 C   0  0  0  0  0  0  0  0  0  0  0  0
   20.1050   20.4660   20.8972 H   0  0  0  0  0  0  0  0  0  0  0  0
   21.2145   20.3588   22.2660 H   0  0  0  0  0  0  0  0  0  0  0  0
   19.4131   19.1594   22.4939 C   0  0  0  0  0  0  0  0  0  0  0  0
   18.3506   19.2241   22.2216 H   0  0  0  0  0  0  0  0  0  0  0  0
   19.4604   19.1169   23.5908 H   0  0  0  0  0  0  0  0  0  0  0  0
   20.0191   17.8690   21.9016 C   0  0  0  0  0  0  0  0  0  0  0  0
   19.9720   17.9110   20.8047 H   0  0  0  0  0  0  0  0  0  0  0  0
   21.0816   17.8038   22.1737 H   0  0  0  0  0  0  0  0  0  0  0  0
   19.2816   16.6088   22.4007 C   0  0  0  0  0  0  0  0  0  0  0  0
   18.2187   16.6693   22.1286 H   0  0  0  0  0  0  0  0  0  0  0  0
   19.3283   16.5621   23.4975 H   0  0  0  0  0  0  0  0  0  0  0  0
   19.8898   15.3223   21.8069 C   0  0  0  0  0  0  0  0  0  0  0  0
   20.9457   15.2200   22.0901 H   0  0  0  0  0  0  0  0  0  0  0  0
   19.8279   15.3281   20.7108 H   0  0  0  0  0  0  0  0  0  0  0  0
   19.3537   14.4367   22.1720 H   0  0  0  0  0  0  0  0  0  0  0  0
  1  2  1  0  0  0  0
  1  3  2  0  0  0  0
  1  4  1  0  0  0  0
  4  5  1  0  0  0  0
  4  6  1  0  0  0  0
  4  7  1  0  0  0  0
  7  8  1  0  0  0  0
  7  9  1  0  0  0  0
  7 10  1  0  0  0  0
 10 11  1  0  0  0  0
 10 12  1  0  0  0  0
 10 13  1  0  0  0  0
 13 14  1  0  0  0  0
 13 15  1  0  0  0  0
 13 16  1  0  0  0  0
 16 17  1  0  0  0  0
 16 18  1  0  0  0  0
 16 19  1  0  0  0  0
 19 20  1  0  0  0  0
 19 21  1  0  0  0  0
 19 22  1  0  0  0  0
M  END
> <VConfSearch Rank>
442

> <Conf_Id>
10

> <Delta U+W>
-1.291

> <U+W>
-54.451

> <U>
5.779

> <W>
-60.230

> <W(PB)>
-62.557

> <W(SA)>
2.328

> <Valence>
7.101

> <Coulomb>
-2.079

> <VdW>
0.757

> <VdW6>
-6.496

> <VdW12>
7.253

> <Bond>
0.100

> <Angle>
2.262

> <Pdih>
4.738

> <Idih>
0.001

> <Tether>
0.000

$$$$
VeraChem MOL file


 22 21  0  0  0  0  0  0  0  0999 V2000     
   23.4339   20.0330   23.3628 C   0  0  0  0  0  0  0  0  0  0  0  0
   23.9477   20.8299   22.6030 O   0  5  0  0  0  0  0  0  0  0  0  0
   23.7001   19.9636   24.5464 O   0  0  0  0  0  0  0  0  0  0  0  0
   22.3814   19.0817   22.8046 C   0  0  0  0  0  0  0  0  0  0  0  0
   22.4407   18.1411   23.3653 H   0  0  0  0  0  0  0  0  0  0  0  0
   22.6438   18.8559   21.7641 H   0  0  0  0  0  0  0  0  0  0  0  0
   20.9468   19.6597   22.8807 C   0  0  0  0  0  0  0  0  0  0  0  0
   20.7048   19.8927   23.9270 H   0  0  0  0  0  0  0  0  0  0  0  0
   20.9072   20.6071   22.3253 H   0  0  0  0  0  0  0  0  0  0  0  0
   19.9005   18.6781   22.3097 C   0  0  0  0  0  0  0  0  0  0  0  0
   19.9409   17.7329   22.8681 H   0  0  0  0  0  0  0  0  0  0  0  0
   20.1555   18.4467   21.2673 H   0  0  0  0  0  0  0  0  0  0  0  0
   18.4706   19.2612   22.3846 C   0  0  0  0  0  0  0  0  0  0  0  0
   18.2573   19.5528   23.4221 H   0  0  0  0  0  0  0  0  0  0  0  0
   18.4136   20.1801   21.7852 H   0  0  0  0  0  0  0  0  0  0  0  0
   17.3778   18.2713   21.9185 C   0  0  0  0  0  0  0  0  0  0  0  0
   16.3925   18.7168   22.1135 H   0  0  0  0  0  0  0  0  0  0  0  0
   17.4276   17.3532   22.5202 H   0  0  0  0  0  0  0  0  0  0  0  0
   17.4743   17.9156   20.4191 C   0  0  0  0  0  0  0  0  0  0  0  0
   16.6281   17.2840   20.1193 H   0  0  0  0  0  0  0  0  0  0  0  0
   18.3958   17.3632   20.1967 H   0  0  0  0  0  0  0  0  0  0  0  0
   17.4567   18.8210   19.7985 H   0  0  0  0  0  0  0  0  0  0  0  0
  1  2  1  0  0  0  0
  1  3  2  0  0  0  0
  1  4  1  0  0  0  0
  4  5  1  0  0  0  0
  4  6  1  0  0  0  0
  4  7  1  0  0  0  0
  7  8  1  0  0  0  0
  7  9  1  0  0  0  0
  7 10  1  0  0  0  0
 10 11  1  0  0  0  0
 10 12  1  0  0  0  0
 10 13  1  0  0  0  0
 13 14  1  0  0  0  0
 13 15  1  0  0  0  0
 13 16  1  0  0  0  0
 16 17  1  0  0  0  0
 16 18  1  0  0  0  0
 16 19  1  0  0  0  0
 19 20  1  0  0  0  0
 19 21  1  0  0  0  0
 19 22  1  0  0  0  0
M  END
> <VConfSearch Rank>
443

> <Conf_Id>
37

> <Delta U+W>
-0.345

> <U+W>
-53.504

> <U>
6.751

> <W>
-60.255

> <W(PB)>
-62.592

> <W(SA)>
2.336

> <Valence>
7.602

> <Coulomb>
-1.744

> <VdW>
0.894

> <VdW6>
-7.110

> <VdW12>
8.004

> <Bond>
0.131

> <Angle>
2.489

> <Pdih>
4.982

> <Idih>
0.001

> <Tether>
0.000

$$$$
VeraChem MOL file


 22 21  0  0  0  0  0  0  0  0999 V2000     
   23.4062   19.3036   20.7906 C   0  0  0  0  0  0  0  0  0  0  0  0
   24.2595   19.0911   21.6292 O   0  5  0  0  0  0  0  0  0  0  0  0
   23.5813   20.0074   19.8156 O   0  0  0  0  0  0  0  0  0  0  0  0
   22.0333   18.6695   20.9836 C   0  0  0  0  0  0  0  0  0  0  0  0
   22.1711   17.7055   21.4879 H   0  0  0  0  0  0  0  0  0  0  0  0
   21.6123   18.4600   19.9929 H   0  0  0  0  0  0  0  0  0  0  0  0
   21.0660   19.5646   21.7968 C   0  0  0  0  0  0  0  0  0  0  0  0
   21.5072   19.7754   22.7809 H   0  0  0  0  0  0  0  0  0  0  0  0
   20.9496   20.5304   21.2857 H   0  0  0  0  0  0  0  0  0  0  0  0
   19.6837   18.9007   21.9781 C   0  0  0  0  0  0  0  0  0  0  0  0
   19.8122   17.9343   22.4826 H   0  0  0  0  0  0  0  0  0  0  0  0
   19.2441   18.6932   20.9929 H   0  0  0  0  0  0  0  0  0  0  0  0
   18.7231   19.7965   22.7937 C   0  0  0  0  0  0  0  0  0  0  0  0
   19.1360   19.9640   23.7978 H   0  0  0  0  0  0  0  0  0  0  0  0
   18.6607   20.7830   22.3143 H   0  0  0  0  0  0  0  0  0  0  0  0
   17.2942   19.2173   22.9123 C   0  0  0  0  0  0  0  0  0  0  0  0
   16.8753   19.0543   21.9097 H   0  0  0  0  0  0  0  0  0  0  0  0
   16.6510   19.9629   23.3997 H   0  0  0  0  0  0  0  0  0  0  0  0
   17.2323   17.9033   23.7210 C   0  0  0  0  0  0  0  0  0  0  0  0
   17.6735   18.0342   24.7177 H   0  0  0  0  0  0  0  0  0  0  0  0
   17.7678   17.0931   23.2107 H   0  0  0  0  0  0  0  0  0  0  0  0
   16.1909   17.5820   23.8519 H   0  0  0  0  0  0  0  0  0  0  0  0
  1  2  1  0  0  0  0
  1  3  2  0  0  0  0
  1  4  1  0  0  0  0
  4  5  1  0  0  0  0
  4  6  1  0  0  0  0
  4  7  1  0  0  0  0
  7  8  1  0  0  0  0
  7  9  1  0  0  0  0
  7 10  1  0  0  0  0
 10 11  1  0  0  0  0
 10 12  1  0  0  0  0
 10 13  1  0  0  0  0
 13 14  1  0  0  0  0
 13 15  1  0  0  0  0
 13 16  1  0  0  0  0
 16 17  1  0  0  0  0
 16 18  1  0  0  0  0
 16 19  1  0  0  0  0
 19 20  1  0  0  0  0
 19 21  1  0  0  0  0
 19 22  1  0  0  0  0
M  END
> <VConfSearch Rank>
444

> <Conf_Id>
38

> <Delta U+W>
-0.439

> <U+W>
-53.598

> <U>
6.751

> <W>
-60.350

> <W(PB)>
-62.659

> <W(SA)>
2.309

> <Valence>
7.602

> <Coulomb>
-1.744

> <VdW>
0.893

> <VdW6>
-7.110

> <VdW12>
8.004

> <Bond>
0.131

> <Angle>
2.489

> <Pdih>
4.981

> <Idih>
0.001

> <Tether>
0.000

$$$$
VeraChem MOL file


 22 21  0  0  0  0  0  0  0  0999 V2000     
   17.2696   20.7869   20.1523 C   0  0  0  0  0  0  0  0  0  0  0  0
   16.9477   20.4366   19.0341 O   0  5  0  0  0  0  0  0  0  0  0  0
   17.0834   21.9065   20.5861 O   0  0  0  0  0  0  0  0  0  0  0  0
   17.9657   19.7721   21.0522 C   0  0  0  0  0  0  0  0  0  0  0  0
   17.5800   18.7762   20.8036 H   0  0  0  0  0  0  0  0  0  0  0  0
   17.6711   19.9869   22.0854 H   0  0  0  0  0  0  0  0  0  0  0  0
   19.5095   19.8000   20.9050 C   0  0  0  0  0  0  0  0  0  0  0  0
   19.7629   19.6788   19.8427 H   0  0  0  0  0  0  0  0  0  0  0  0
   19.8895   20.7869   21.2034 H   0  0  0  0  0  0  0  0  0  0  0  0
   20.2305   18.6953   21.7140 C   0  0  0  0  0  0  0  0  0  0  0  0
   21.2917   18.7080   21.4345 H   0  0  0  0  0  0  0  0  0  0  0  0
   19.8424   17.7108   21.4193 H   0  0  0  0  0  0  0  0  0  0  0  0
   20.1005   18.8711   23.2470 C   0  0  0  0  0  0  0  0  0  0  0  0
   20.4870   19.8563   23.5412 H   0  0  0  0  0  0  0  0  0  0  0  0
   19.0399   18.8555   23.5282 H   0  0  0  0  0  0  0  0  0  0  0  0
   20.8250   17.7692   24.0551 C   0  0  0  0  0  0  0  0  0  0  0  0
   20.4492   16.7811   23.7553 H   0  0  0  0  0  0  0  0  0  0  0  0
   20.5708   17.8881   25.1174 H   0  0  0  0  0  0  0  0  0  0  0  0
   22.3616   17.8086   23.9070 C   0  0  0  0  0  0  0  0  0  0  0  0
   22.6727   17.5731   22.8817 H   0  0  0  0  0  0  0  0  0  0  0  0
   22.8298   17.0719   24.5726 H   0  0  0  0  0  0  0  0  0  0  0  0
   22.7564   18.7990   24.1685 H   0  0  0  0  0  0  0  0  0  0  0  0
  1  2  1  0  0  0  0
  1  3  2  0  0  0  0
  1  4  1  0  0  0  0
  4  5  1  0  0  0  0
  4  6  1  0  0  0  0
  4  7  1  0  0  0  0
  7  8  1  0  0  0  0
  7  9  1  0  0  0  0
  7 10  1  0  0  0  0
 10 11  1  0  0  0  0
 10 12  1  0  0  0  0
 10 13  1  0  0  0  0
 13 14  1  0  0  0  0
 13 15  1  0  0  0  0
 13 16  1  0  0  0  0
 16 17  1  0  0  0  0
 16 18  1  0  0  0  0
 16 19  1  0  0  0  0
 19 20  1  0  0  0  0
 19 21  1  0  0  0  0
 19 22  1  0  0  0  0
M  END
> <VConfSearch Rank>
445

> <Conf_Id>
60

> <Delta U+W>
0.386

> <U+W>
-52.773

> <U>
7.689

> <W>
-60.463

> <W(PB)>
-62.772

> <W(SA)>
2.309

> <Valence>
8.197

> <Coulomb>
-1.561

> <VdW>
1.053

> <VdW6>
-7.737

> <VdW12>
8.790

> <Bond>
0.181

> <Angle>
2.780

> <Pdih>
5.235

> <Idih>
0.001

> <Tether>
0.000

$$$$
VeraChem MOL file


 22 21  0  0  0  0  0  0  0  0999 V2000     
   22.1361   17.1017   24.6006 C   0  0  0  0  0  0  0  0  0  0  0  0
   21.5042   16.6893   25.5530 O   0  5  0  0  0  0  0  0  0  0  0  0
   23.3454   17.2208   24.5963 O   0  0  0  0  0  0  0  0  0  0  0  0
   21.3676   17.5136   23.3500 C   0  0  0  0  0  0  0  0  0  0  0  0
   20.4926   16.8594   23.2669 H   0  0  0  0  0  0  0  0  0  0  0  0
   22.0049   17.3176   22.4794 H   0  0  0  0  0  0  0  0  0  0  0  0
   20.9381   19.0037   23.3740 C   0  0  0  0  0  0  0  0  0  0  0  0
   20.2610   19.1776   24.2217 H   0  0  0  0  0  0  0  0  0  0  0  0
   21.8277   19.6225   23.5562 H   0  0  0  0  0  0  0  0  0  0  0  0
   20.2670   19.4778   22.0626 C   0  0  0  0  0  0  0  0  0  0  0  0
   20.9431   19.2951   21.2164 H   0  0  0  0  0  0  0  0  0  0  0  0
   20.1322   20.5652   22.1243 H   0  0  0  0  0  0  0  0  0  0  0  0
   18.8987   18.8046   21.7934 C   0  0  0  0  0  0  0  0  0  0  0  0
   19.0325   17.7174   21.7283 H   0  0  0  0  0  0  0  0  0  0  0  0
   18.2233   18.9858   22.6406 H   0  0  0  0  0  0  0  0  0  0  0  0
   18.2263   19.2821   20.4850 C   0  0  0  0  0  0  0  0  0  0  0  0
   17.3377   18.6627   20.3004 H   0  0  0  0  0  0  0  0  0  0  0  0
   18.9035   19.1131   19.6363 H   0  0  0  0  0  0  0  0  0  0  0  0
   17.7965   20.7649   20.5207 C   0  0  0  0  0  0  0  0  0  0  0  0
   17.1459   20.9648   21.3820 H   0  0  0  0  0  0  0  0  0  0  0  0
   17.2411   21.0250   19.6104 H   0  0  0  0  0  0  0  0  0  0  0  0
   18.6642   21.4334   20.5814 H   0  0  0  0  0  0  0  0  0  0  0  0
  1  2  1  0  0  0  0
  1  3  2  0  0  0  0
  1  4  1  0  0  0  0
  4  5  1  0  0  0  0
  4  6  1  0  0  0  0
  4  7  1  0  0  0  0
  7  8  1  0  0  0  0
  7  9  1  0  0  0  0
  7 10  1  0  0  0  0
 10 11  1  0  0  0  0
 10 12  1  0  0  0  0
 10 13  1  0  0  0  0
 13 14  1  0  0  0  0
 13 15  1  0  0  0  0
 13 16  1  0  0  0  0
 16 17  1  0  0  0  0
 16 18  1  0  0  0  0
 16 19  1  0  0  0  0
 19 20  1  0  0  0  0
 19 21  1  0  0  0  0
 19 22  1  0  0  0  0
M  END
> <VConfSearch Rank>
446

> <Conf_Id>
28

> <Delta U+W>
0.351

> <U+W>
-52.808

> <U>
7.689

> <W>
-60.498

> <W(PB)>
-62.768

> <W(SA)>
2.270

> <Valence>
8.197

> <Coulomb>
-1.561

> <VdW>
1.053

> <VdW6>
-7.737

> <VdW12>
8.791

> <Bond>
0.181

> <Angle>
2.780

> <Pdih>
5.235

> <Idih>
0.001

> <Tether>
0.000

$$$$
VeraChem MOL file


 22 21  0  0  0  0  0  0  0  0999 V2000     
   21.6826   21.3906   24.4051 C   0  0  0  0  0  0  0  0  0  0  0  0
   20.9887   22.1526   25.0488 O   0  5  0  0  0  0  0  0  0  0  0  0
   22.6805   20.8547   24.8449 O   0  0  0  0  0  0  0  0  0  0  0  0
   21.2670   21.0740   22.9729 C   0  0  0  0  0  0  0  0  0  0  0  0
   22.1758   20.8931   22.3864 H   0  0  0  0  0  0  0  0  0  0  0  0
   20.7826   21.9643   22.5542 H   0  0  0  0  0  0  0  0  0  0  0  0
   20.3183   19.8536   22.8776 C   0  0  0  0  0  0  0  0  0  0  0  0
   20.8170   18.9815   23.3205 H   0  0  0  0  0  0  0  0  0  0  0  0
   19.4178   20.0467   23.4769 H   0  0  0  0  0  0  0  0  0  0  0  0
   19.9170   19.5524   21.4150 C   0  0  0  0  0  0  0  0  0  0  0  0
   20.8126   19.3076   20.8276 H   0  0  0  0  0  0  0  0  0  0  0  0
   19.4906   20.4606   20.9676 H   0  0  0  0  0  0  0  0  0  0  0  0
   18.8828   18.4094   21.2826 C   0  0  0  0  0  0  0  0  0  0  0  0
   17.9854   18.6556   21.8666 H   0  0  0  0  0  0  0  0  0  0  0  0
   18.5633   18.3490   20.2332 H   0  0  0  0  0  0  0  0  0  0  0  0
   19.4275   17.0312   21.7209 C   0  0  0  0  0  0  0  0  0  0  0  0
   19.6804   17.0463   22.7891 H   0  0  0  0  0  0  0  0  0  0  0  0
   20.3544   16.8082   21.1747 H   0  0  0  0  0  0  0  0  0  0  0  0
   18.4002   15.9100   21.4650 C   0  0  0  0  0  0  0  0  0  0  0  0
   18.1520   15.8399   20.3978 H   0  0  0  0  0  0  0  0  0  0  0  0
   17.4720   16.0938   22.0217 H   0  0  0  0  0  0  0  0  0  0  0  0
   18.8002   14.9388   21.7841 H   0  0  0  0  0  0  0  0  0  0  0  0
  1  2  1  0  0  0  0
  1  3  2  0  0  0  0
  1  4  1  0  0  0  0
  4  5  1  0  0  0  0
  4  6  1  0  0  0  0
  4  7  1  0  0  0  0
  7  8  1  0  0  0  0
  7  9  1  0  0  0  0
  7 10  1  0  0  0  0
 10 11  1  0  0  0  0
 10 12  1  0  0  0  0
 10 13  1  0  0  0  0
 13 14  1  0  0  0  0
 13 15  1  0  0  0  0
 13 16  1  0  0  0  0
 16 17  1  0  0  0  0
 16 18  1  0  0  0  0
 16 19  1  0  0  0  0
 19 20  1  0  0  0  0
 19 21  1  0  0  0  0
 19 22  1  0  0  0  0
M  END
> <VConfSearch Rank>
447

> <Conf_Id>
50

> <Delta U+W>
-0.486

> <U+W>
-53.646

> <U>
7.026

> <W>
-60.672

> <W(PB)>
-62.964

> <W(SA)>
2.292

> <Valence>
7.637

> <Coulomb>
-1.488

> <VdW>
0.877

> <VdW6>
-7.165

> <VdW12>
8.043

> <Bond>
0.134

> <Angle>
2.513

> <Pdih>
4.990

> <Idih>
0.001

> <Tether>
0.000

$$$$
VeraChem MOL file


 22 21  0  0  0  0  0  0  0  0999 V2000     
   18.9739   22.5812   21.4372 C   0  0  0  0  0  0  0  0  0  0  0  0
   19.0784   22.9108   20.2723 O   0  5  0  0  0  0  0  0  0  0  0  0
   19.3587   23.2627   22.3667 O   0  0  0  0  0  0  0  0  0  0  0  0
   18.3436   21.2284   21.7487 C   0  0  0  0  0  0  0  0  0  0  0  0
   17.5870   21.0208   20.9826 H   0  0  0  0  0  0  0  0  0  0  0  0
   17.8195   21.3096   22.7086 H   0  0  0  0  0  0  0  0  0  0  0  0
   19.3807   20.0795   21.8021 C   0  0  0  0  0  0  0  0  0  0  0  0
   19.9028   20.0171   20.8374 H   0  0  0  0  0  0  0  0  0  0  0  0
   20.1371   20.3196   22.5609 H   0  0  0  0  0  0  0  0  0  0  0  0
   18.7154   18.7212   22.1240 C   0  0  0  0  0  0  0  0  0  0  0  0
   17.9111   18.5370   21.3986 H   0  0  0  0  0  0  0  0  0  0  0  0
   18.2380   18.7672   23.1124 H   0  0  0  0  0  0  0  0  0  0  0  0
   19.6984   17.5274   22.0789 C   0  0  0  0  0  0  0  0  0  0  0  0
   19.1231   16.5985   22.1932 H   0  0  0  0  0  0  0  0  0  0  0  0
   20.1731   17.4787   21.0893 H   0  0  0  0  0  0  0  0  0  0  0  0
   20.7854   17.5819   23.1760 C   0  0  0  0  0  0  0  0  0  0  0  0
   20.3119   17.6838   24.1622 H   0  0  0  0  0  0  0  0  0  0  0  0
   21.4230   18.4642   23.0336 H   0  0  0  0  0  0  0  0  0  0  0  0
   21.6683   16.3178   23.1602 C   0  0  0  0  0  0  0  0  0  0  0  0
   22.1762   16.2060   22.1932 H   0  0  0  0  0  0  0  0  0  0  0  0
   21.0678   15.4163   23.3385 H   0  0  0  0  0  0  0  0  0  0  0  0
   22.4368   16.3730   23.9422 H   0  0  0  0  0  0  0  0  0  0  0  0
  1  2  1  0  0  0  0
  1  3  2  0  0  0  0
  1  4  1  0  0  0  0
  4  5  1  0  0  0  0
  4  6  1  0  0  0  0
  4  7  1  0  0  0  0
  7  8  1  0  0  0  0
  7  9  1  0  0  0  0
  7 10  1  0  0  0  0
 10 11  1  0  0  0  0
 10 12  1  0  0  0  0
 10 13  1  0  0  0  0
 13 14  1  0  0  0  0
 13 15  1  0  0  0  0
 13 16  1  0  0  0  0
 16 17  1  0  0  0  0
 16 18  1  0  0  0  0
 16 19  1  0  0  0  0
 19 20  1  0  0  0  0
 19 21  1  0  0  0  0
 19 22  1  0  0  0  0
M  END
> <VConfSearch Rank>
448

> <Conf_Id>
51

> <Delta U+W>
-0.517

> <U+W>
-53.677

> <U>
7.026

> <W>
-60.703

> <W(PB)>
-63.007

> <W(SA)>
2.304

> <Valence>
7.638

> <Coulomb>
-1.488

> <VdW>
0.877

> <VdW6>
-7.165

> <VdW12>
8.042

> <Bond>
0.134

> <Angle>
2.513

> <Pdih>
4.990

> <Idih>
0.001

> <Tether>
0.000

$$$$
VeraChem MOL file


 22 21  0  0  0  0  0  0  0  0999 V2000     
   20.0372   18.4180   25.7947 C   0  0  0  0  0  0  0  0  0  0  0  0
   20.3949   17.3042   26.1240 O   0  5  0  0  0  0  0  0  0  0  0  0
   20.6335   19.4326   26.0975 O   0  0  0  0  0  0  0  0  0  0  0  0
   18.7586   18.5485   24.9718 C   0  0  0  0  0  0  0  0  0  0  0  0
   18.3939   19.5797   25.0524 H   0  0  0  0  0  0  0  0  0  0  0  0
   18.0016   17.9068   25.4380 H   0  0  0  0  0  0  0  0  0  0  0  0
   18.9248   18.1542   23.4812 C   0  0  0  0  0  0  0  0  0  0  0  0
   19.3170   17.1296   23.4172 H   0  0  0  0  0  0  0  0  0  0  0  0
   17.9361   18.1447   23.0027 H   0  0  0  0  0  0  0  0  0  0  0  0
   19.8540   19.1193   22.7113 C   0  0  0  0  0  0  0  0  0  0  0  0
   20.8507   19.1214   23.1740 H   0  0  0  0  0  0  0  0  0  0  0  0
   19.4648   20.1437   22.7893 H   0  0  0  0  0  0  0  0  0  0  0  0
   19.9800   18.7266   21.2236 C   0  0  0  0  0  0  0  0  0  0  0  0
   20.3693   17.7021   21.1464 H   0  0  0  0  0  0  0  0  0  0  0  0
   18.9849   18.7266   20.7579 H   0  0  0  0  0  0  0  0  0  0  0  0
   20.9085   19.6895   20.4543 C   0  0  0  0  0  0  0  0  0  0  0  0
   21.9055   19.6907   20.9162 H   0  0  0  0  0  0  0  0  0  0  0  0
   20.5213   20.7152   20.5278 H   0  0  0  0  0  0  0  0  0  0  0  0
   21.0324   19.2938   18.9692 C   0  0  0  0  0  0  0  0  0  0  0  0
   21.4474   18.2827   18.8654 H   0  0  0  0  0  0  0  0  0  0  0  0
   21.6957   19.9886   18.4378 H   0  0  0  0  0  0  0  0  0  0  0  0
   20.0527   19.3148   18.4740 H   0  0  0  0  0  0  0  0  0  0  0  0
  1  2  1  0  0  0  0
  1  3  2  0  0  0  0
  1  4  1  0  0  0  0
  4  5  1  0  0  0  0
  4  6  1  0  0  0  0
  4  7  1  0  0  0  0
  7  8  1  0  0  0  0
  7  9  1  0  0  0  0
  7 10  1  0  0  0  0
 10 11  1  0  0  0  0
 10 12  1  0  0  0  0
 10 13  1  0  0  0  0
 13 14  1  0  0  0  0
 13 15  1  0  0  0  0
 13 16  1  0  0  0  0
 16 17  1  0  0  0  0
 16 18  1  0  0  0  0
 16 19  1  0  0  0  0
 19 20  1  0  0  0  0
 19 21  1  0  0  0  0
 19 22  1  0  0  0  0
M  END
> <VConfSearch Rank>
449

> <Conf_Id>
43

> <Delta U+W>
-0.129

> <U+W>
-53.289

> <U>
7.937

> <W>
-61.225

> <W(PB)>
-63.523

> <W(SA)>
2.297

> <Valence>
7.358

> <Coulomb>
-0.022

> <VdW>
0.601

> <VdW6>
-7.363

> <VdW12>
7.964

> <Bond>
0.121

> <Angle>
2.425

> <Pdih>
4.811

> <Idih>
0.000

> <Tether>
0.000

$$$$
VeraChem MOL file


 22 21  0  0  0  0  0  0  0  0999 V2000     
   17.2358   21.1398   21.0409 C   0  0  0  0  0  0  0  0  0  0  0  0
   16.3943   21.4563   21.8587 O   0  5  0  0  0  0  0  0  0  0  0  0
   16.9894   20.5077   20.0327 O   0  0  0  0  0  0  0  0  0  0  0  0
   18.6772   21.5772   21.2865 C   0  0  0  0  0  0  0  0  0  0  0  0
   18.6536   22.6320   21.5845 H   0  0  0  0  0  0  0  0  0  0  0  0
   19.2247   21.5276   20.3375 H   0  0  0  0  0  0  0  0  0  0  0  0
   19.4115   20.7486   22.3724 C   0  0  0  0  0  0  0  0  0  0  0  0
   20.3839   21.2154   22.5800 H   0  0  0  0  0  0  0  0  0  0  0  0
   18.8369   20.7848   23.3084 H   0  0  0  0  0  0  0  0  0  0  0  0
   19.6321   19.2786   21.9502 C   0  0  0  0  0  0  0  0  0  0  0  0
   20.1954   19.2482   21.0074 H   0  0  0  0  0  0  0  0  0  0  0  0
   18.6622   18.7995   21.7571 H   0  0  0  0  0  0  0  0  0  0  0  0
   20.3919   18.4810   23.0318 C   0  0  0  0  0  0  0  0  0  0  0  0
   21.3633   18.9565   23.2246 H   0  0  0  0  0  0  0  0  0  0  0  0
   19.8279   18.5119   23.9742 H   0  0  0  0  0  0  0  0  0  0  0  0
   20.6118   17.0127   22.6112 C   0  0  0  0  0  0  0  0  0  0  0  0
   21.1772   16.9778   21.6696 H   0  0  0  0  0  0  0  0  0  0  0  0
   19.6419   16.5332   22.4192 H   0  0  0  0  0  0  0  0  0  0  0  0
   21.3702   16.2192   23.6940 C   0  0  0  0  0  0  0  0  0  0  0  0
   22.3581   16.6591   23.8837 H   0  0  0  0  0  0  0  0  0  0  0  0
   21.5177   15.1781   23.3786 H   0  0  0  0  0  0  0  0  0  0  0  0
   20.8112   16.2111   24.6389 H   0  0  0  0  0  0  0  0  0  0  0  0
  1  2  1  0  0  0  0
  1  3  2  0  0  0  0
  1  4  1  0  0  0  0
  4  5  1  0  0  0  0
  4  6  1  0  0  0  0
  4  7  1  0  0  0  0
  7  8  1  0  0  0  0
  7  9  1  0  0  0  0
  7 10  1  0  0  0  0
 10 11  1  0  0  0  0
 10 12  1  0  0  0  0
 10 13  1  0  0  0  0
 13 14  1  0  0  0  0
 13 15  1  0  0  0  0
 13 16  1  0  0  0  0
 16 17  1  0  0  0  0
 16 18  1  0  0  0  0
 16 19  1  0  0  0  0
 19 20  1  0  0  0  0
 19 21  1  0  0  0  0
 19 22  1  0  0  0  0
M  END
> <VConfSearch Rank>
450

> <Conf_Id>
44

> <Delta U+W>
-0.155

> <U+W>
-53.314

> <U>
7.937

> <W>
-61.252

> <W(PB)>
-63.556

> <W(SA)>
2.304

> <Valence>
7.358

> <Coulomb>
-0.021

> <VdW>
0.600

> <VdW6>
-7.363

> <VdW12>
7.964

> <Bond>
0.121

> <Angle>
2.425

> <Pdih>
4.811

> <Idih>
0.001

> <Tether>
0.000

$$$$
VeraChem MOL file


 22 21  0  0  0  0  0  0  0  0999 V2000     
   17.5357   19.8531   19.6709 C   0  0  0  0  0  0  0  0  0  0  0  0
   16.5451   20.4234   20.0835 O   0  5  0  0  0  0  0  0  0  0  0  0
   17.4980   18.9017   18.9156 O   0  0  0  0  0  0  0  0  0  0  0  0
   18.9011   20.3737   20.1113 C   0  0  0  0  0  0  0  0  0  0  0  0
   18.8842   21.4649   20.0068 H   0  0  0  0  0  0  0  0  0  0  0  0
   19.6605   19.9998   19.4138 H   0  0  0  0  0  0  0  0  0  0  0  0
   19.2813   19.9993   21.5676 C   0  0  0  0  0  0  0  0  0  0  0  0
   20.1952   20.5428   21.8386 H   0  0  0  0  0  0  0  0  0  0  0  0
   18.4922   20.3446   22.2498 H   0  0  0  0  0  0  0  0  0  0  0  0
   19.5050   18.4789   21.7507 C   0  0  0  0  0  0  0  0  0  0  0  0
   20.3229   18.1433   21.0986 H   0  0  0  0  0  0  0  0  0  0  0  0
   18.6062   17.9400   21.4210 H   0  0  0  0  0  0  0  0  0  0  0  0
   19.8069   18.0716   23.2125 C   0  0  0  0  0  0  0  0  0  0  0  0
   18.9889   18.4075   23.8643 H   0  0  0  0  0  0  0  0  0  0  0  0
   19.8202   16.9746   23.2717 H   0  0  0  0  0  0  0  0  0  0  0  0
   21.1526   18.6178   23.7409 C   0  0  0  0  0  0  0  0  0  0  0  0
   21.1321   19.7151   23.7666 H   0  0  0  0  0  0  0  0  0  0  0  0
   21.9638   18.3276   23.0590 H   0  0  0  0  0  0  0  0  0  0  0  0
   21.4603   18.0895   25.1565 C   0  0  0  0  0  0  0  0  0  0  0  0
   20.6774   18.3887   25.8657 H   0  0  0  0  0  0  0  0  0  0  0  0
   22.4166   18.4885   25.5188 H   0  0  0  0  0  0  0  0  0  0  0  0
   21.5269   16.9936   25.1614 H   0  0  0  0  0  0  0  0  0  0  0  0
  1  2  1  0  0  0  0
  1  3  2  0  0  0  0
  1  4  1  0  0  0  0
  4  5  1  0  0  0  0
  4  6  1  0  0  0  0
  4  7  1  0  0  0  0
  7  8  1  0  0  0  0
  7  9  1  0  0  0  0
  7 10  1  0  0  0  0
 10 11  1  0  0  0  0
 10 12  1  0  0  0  0
 10 13  1  0  0  0  0
 13 14  1  0  0  0  0
 13 15  1  0  0  0  0
 13 16  1  0  0  0  0
 16 17  1  0  0  0  0
 16 18  1  0  0  0  0
 16 19  1  0  0  0  0
 19 20  1  0  0  0  0
 19 21  1  0  0  0  0
 19 22  1  0  0  0  0
M  END
> <VConfSearch Rank>
451

> <Conf_Id>
53

> <Delta U+W>
0.723

> <U+W>
-52.436

> <U>
8.587

> <W>
-61.022

> <W(PB)>
-63.285

> <W(SA)>
2.263

> <Valence>
7.933

> <Coulomb>
-0.124

> <VdW>
0.778

> <VdW6>
-7.981

> <VdW12>
8.759

> <Bond>
0.160

> <Angle>
2.698

> <Pdih>
5.074

> <Idih>
0.001

> <Tether>
0.000

$$$$
VeraChem MOL file


 22 21  0  0  0  0  0  0  0  0999 V2000     
   20.3092   16.0930   20.7615 C   0  0  0  0  0  0  0  0  0  0  0  0
   20.1933   16.2691   19.5647 O   0  5  0  0  0  0  0  0  0  0  0  0
   20.6501   15.0367   21.2560 O   0  0  0  0  0  0  0  0  0  0  0  0
   20.0331   17.2680   21.6928 C   0  0  0  0  0  0  0  0  0  0  0  0
   19.6472   16.8699   22.6388 H   0  0  0  0  0  0  0  0  0  0  0  0
   19.2385   17.8707   21.2388 H   0  0  0  0  0  0  0  0  0  0  0  0
   21.2892   18.1382   21.9496 C   0  0  0  0  0  0  0  0  0  0  0  0
   22.1103   17.4840   22.2739 H   0  0  0  0  0  0  0  0  0  0  0  0
   21.6137   18.5924   21.0032 H   0  0  0  0  0  0  0  0  0  0  0  0
   21.0924   19.2448   23.0161 C   0  0  0  0  0  0  0  0  0  0  0  0
   22.0562   19.7566   23.1430 H   0  0  0  0  0  0  0  0  0  0  0  0
   20.8642   18.7930   23.9912 H   0  0  0  0  0  0  0  0  0  0  0  0
   20.0254   20.3087   22.6536 C   0  0  0  0  0  0  0  0  0  0  0  0
   20.3701   21.2858   23.0189 H   0  0  0  0  0  0  0  0  0  0  0  0
   19.9419   20.4028   21.5622 H   0  0  0  0  0  0  0  0  0  0  0  0
   18.6395   20.0243   23.2775 C   0  0  0  0  0  0  0  0  0  0  0  0
   18.7294   19.9901   24.3720 H   0  0  0  0  0  0  0  0  0  0  0  0
   18.2682   19.0418   22.9625 H   0  0  0  0  0  0  0  0  0  0  0  0
   17.6108   21.1037   22.8852 C   0  0  0  0  0  0  0  0  0  0  0  0
   17.9346   22.0968   23.2234 H   0  0  0  0  0  0  0  0  0  0  0  0
   16.6349   20.8919   23.3411 H   0  0  0  0  0  0  0  0  0  0  0  0
   17.4757   21.1393   21.7963 H   0  0  0  0  0  0  0  0  0  0  0  0
  1  2  1  0  0  0  0
  1  3  2  0  0  0  0
  1  4  1  0  0  0  0
  4  5  1  0  0  0  0
  4  6  1  0  0  0  0
  4  7  1  0  0  0  0
  7  8  1  0  0  0  0
  7  9  1  0  0  0  0
  7 10  1  0  0  0  0
 10 11  1  0  0  0  0
 10 12  1  0  0  0  0
 10 13  1  0  0  0  0
 13 14  1  0  0  0  0
 13 15  1  0  0  0  0
 13 16  1  0  0  0  0
 16 17  1  0  0  0  0
 16 18  1  0  0  0  0
 16 19  1  0  0  0  0
 19 20  1  0  0  0  0
 19 21  1  0  0  0  0
 19 22  1  0  0  0  0
M  END
> <VConfSearch Rank>
452

> <Conf_Id>
5

> <Delta U+W>
2.167

> <U+W>
-50.993

> <U>
10.045

> <W>
-61.037

> <W(PB)>
-63.303

> <W(SA)>
2.266

> <Valence>
10.100

> <Coulomb>
-0.883

> <VdW>
0.828

> <VdW6>
-8.177

> <VdW12>
9.005

> <Bond>
0.182

> <Angle>
2.988

> <Pdih>
6.930

> <Idih>
0.001

> <Tether>
0.000

$$$$
VeraChem MOL file


 22 21  0  0  0  0  0  0  0  0999 V2000     
   20.5134   18.9101   19.0673 C   0  0  0  0  0  0  0  0  0  0  0  0
   19.4757   18.7303   18.4612 O   0  5  0  0  0  0  0  0  0  0  0  0
   21.6002   18.9936   18.5303 O   0  0  0  0  0  0  0  0  0  0  0  0
   20.4515   19.0141   20.5870 C   0  0  0  0  0  0  0  0  0  0  0  0
   19.5016   19.4943   20.8476 H   0  0  0  0  0  0  0  0  0  0  0  0
   21.2594   19.6781   20.9166 H   0  0  0  0  0  0  0  0  0  0  0  0
   20.5691   17.6372   21.2881 C   0  0  0  0  0  0  0  0  0  0  0  0
   19.7083   17.0145   21.0079 H   0  0  0  0  0  0  0  0  0  0  0  0
   21.4597   17.1213   20.9033 H   0  0  0  0  0  0  0  0  0  0  0  0
   20.6742   17.7134   22.8320 C   0  0  0  0  0  0  0  0  0  0  0  0
   21.5874   18.2510   23.1221 H   0  0  0  0  0  0  0  0  0  0  0  0
   20.8005   16.6881   23.2057 H   0  0  0  0  0  0  0  0  0  0  0  0
   19.4394   18.3339   23.5335 C   0  0  0  0  0  0  0  0  0  0  0  0
   18.5382   18.1685   22.9274 H   0  0  0  0  0  0  0  0  0  0  0  0
   19.2729   17.8014   24.4800 H   0  0  0  0  0  0  0  0  0  0  0  0
   19.6064   19.8378   23.8516 C   0  0  0  0  0  0  0  0  0  0  0  0
   19.8049   20.4068   22.9355 H   0  0  0  0  0  0  0  0  0  0  0  0
   20.4779   19.9805   24.5053 H   0  0  0  0  0  0  0  0  0  0  0  0
   18.3532   20.4119   24.5424 C   0  0  0  0  0  0  0  0  0  0  0  0
   17.4699   20.3124   23.8980 H   0  0  0  0  0  0  0  0  0  0  0  0
   18.4898   21.4775   24.7680 H   0  0  0  0  0  0  0  0  0  0  0  0
   18.1500   19.8890   25.4861 H   0  0  0  0  0  0  0  0  0  0  0  0
  1  2  1  0  0  0  0
  1  3  2  0  0  0  0
  1  4  1  0  0  0  0
  4  5  1  0  0  0  0
  4  6  1  0  0  0  0
  4  7  1  0  0  0  0
  7  8  1  0  0  0  0
  7  9  1  0  0  0  0
  7 10  1  0  0  0  0
 10 11  1  0  0  0  0
 10 12  1  0  0  0  0
 10 13  1  0  0  0  0
 13 14  1  0  0  0  0
 13 15  1  0  0  0  0
 13 16  1  0  0  0  0
 16 17  1  0  0  0  0
 16 18  1  0  0  0  0
 16 19  1  0  0  0  0
 19 20  1  0  0  0  0
 19 21  1  0  0  0  0
 19 22  1  0  0  0  0
M  END
> <VConfSearch Rank>
453

> <Conf_Id>
6

> <Delta U+W>
2.118

> <U+W>
-51.042

> <U>
10.045

> <W>
-61.086

> <W(PB)>
-63.356

> <W(SA)>
2.270

> <Valence>
10.100

> <Coulomb>
-0.883

> <VdW>
0.828

> <VdW6>
-8.177

> <VdW12>
9.004

> <Bond>
0.182

> <Angle>
2.988

> <Pdih>
6.930

> <Idih>
0.001

> <Tether>
0.000

$$$$
VeraChem MOL file


 22 21  0  0  0  0  0  0  0  0999 V2000     
   20.8478   18.9906   20.1809 C   0  0  0  0  0  0  0  0  0  0  0  0
   20.7669   20.1282   19.7605 O   0  5  0  0  0  0  0  0  0  0  0  0
   20.2239   18.0577   19.7144 O   0  0  0  0  0  0  0  0  0  0  0  0
   21.8375   18.7028   21.3084 C   0  0  0  0  0  0  0  0  0  0  0  0
   22.8332   18.9286   20.9093 H   0  0  0  0  0  0  0  0  0  0  0  0
   21.8242   17.6286   21.5291 H   0  0  0  0  0  0  0  0  0  0  0  0
   21.6170   19.5228   22.6107 C   0  0  0  0  0  0  0  0  0  0  0  0
   22.5569   19.5154   23.1790 H   0  0  0  0  0  0  0  0  0  0  0  0
   21.4227   20.5755   22.3622 H   0  0  0  0  0  0  0  0  0  0  0  0
   20.5010   18.9812   23.5381 C   0  0  0  0  0  0  0  0  0  0  0  0
   20.5424   19.5384   24.4841 H   0  0  0  0  0  0  0  0  0  0  0  0
   20.7059   17.9315   23.7891 H   0  0  0  0  0  0  0  0  0  0  0  0
   19.0771   19.1064   22.9505 C   0  0  0  0  0  0  0  0  0  0  0  0
   18.9096   20.1357   22.6049 H   0  0  0  0  0  0  0  0  0  0  0  0
   18.9762   18.4529   22.0747 H   0  0  0  0  0  0  0  0  0  0  0  0
   17.9973   18.7261   23.9856 C   0  0  0  0  0  0  0  0  0  0  0  0
   18.0803   19.3788   24.8656 H   0  0  0  0  0  0  0  0  0  0  0  0
   18.1646   17.6974   24.3335 H   0  0  0  0  0  0  0  0  0  0  0  0
   16.5780   18.8428   23.3944 C   0  0  0  0  0  0  0  0  0  0  0  0
   16.3727   19.8703   23.0665 H   0  0  0  0  0  0  0  0  0  0  0  0
   15.8232   18.5681   24.1426 H   0  0  0  0  0  0  0  0  0  0  0  0
   16.4571   18.1768   22.5299 H   0  0  0  0  0  0  0  0  0  0  0  0
  1  2  1  0  0  0  0
  1  3  2  0  0  0  0
  1  4  1  0  0  0  0
  4  5  1  0  0  0  0
  4  6  1  0  0  0  0
  4  7  1  0  0  0  0
  7  8  1  0  0  0  0
  7  9  1  0  0  0  0
  7 10  1  0  0  0  0
 10 11  1  0  0  0  0
 10 12  1  0  0  0  0
 10 13  1  0  0  0  0
 13 14  1  0  0  0  0
 13 15  1  0  0  0  0
 13 16  1  0  0  0  0
 16 17  1  0  0  0  0
 16 18  1  0  0  0  0
 16 19  1  0  0  0  0
 19 20  1  0  0  0  0
 19 21  1  0  0  0  0
 19 22  1  0  0  0  0
M  END
> <VConfSearch Rank>
454

> <Conf_Id>
8

> <Delta U+W>
1.886

> <U+W>
-51.274

> <U>
11.237

> <W>
-62.510

> <W(PB)>
-64.777

> <W(SA)>
2.267

> <Valence>
9.029

> <Coulomb>
1.667

> <VdW>
0.540

> <VdW6>
-8.825

> <VdW12>
9.365

> <Bond>
0.186

> <Angle>
3.195

> <Pdih>
5.642

> <Idih>
0.007

> <Tether>
0.000

$$$$
VeraChem MOL file


 22 21  0  0  0  0  0  0  0  0999 V2000     
   22.0247   19.0745   24.4614 C   0  0  0  0  0  0  0  0  0  0  0  0
   22.1187   20.2692   24.2601 O   0  5  0  0  0  0  0  0  0  0  0  0
   22.9769   18.3194   24.4817 O   0  0  0  0  0  0  0  0  0  0  0  0
   20.6401   18.4930   24.7334 C   0  0  0  0  0  0  0  0  0  0  0  0
   19.9512   19.3154   24.9567 H   0  0  0  0  0  0  0  0  0  0  0  0
   20.7129   17.8941   25.6487 H   0  0  0  0  0  0  0  0  0  0  0  0
   20.0856   17.6072   23.5841 C   0  0  0  0  0  0  0  0  0  0  0  0
   20.7609   16.7519   23.4437 H   0  0  0  0  0  0  0  0  0  0  0  0
   19.1172   17.1872   23.8878 H   0  0  0  0  0  0  0  0  0  0  0  0
   19.9215   18.3379   22.2284 C   0  0  0  0  0  0  0  0  0  0  0  0
   19.6178   17.5962   21.4790 H   0  0  0  0  0  0  0  0  0  0  0  0
   20.8930   18.7312   21.8990 H   0  0  0  0  0  0  0  0  0  0  0  0
   18.8833   19.4859   22.2687 C   0  0  0  0  0  0  0  0  0  0  0  0
   17.9153   19.1004   22.6165 H   0  0  0  0  0  0  0  0  0  0  0  0
   19.2033   20.2382   23.0012 H   0  0  0  0  0  0  0  0  0  0  0  0
   18.6992   20.1956   20.9069 C   0  0  0  0  0  0  0  0  0  0  0  0
   19.6689   20.5686   20.5493 H   0  0  0  0  0  0  0  0  0  0  0  0
   18.0629   21.0790   21.0547 H   0  0  0  0  0  0  0  0  0  0  0  0
   18.0558   19.2977   19.8277 C   0  0  0  0  0  0  0  0  0  0  0  0
   18.7128   18.4624   19.5557 H   0  0  0  0  0  0  0  0  0  0  0  0
   17.8598   19.8756   18.9153 H   0  0  0  0  0  0  0  0  0  0  0  0
   17.1006   18.8854   20.1780 H   0  0  0  0  0  0  0  0  0  0  0  0
  1  2  1  0  0  0  0
  1  3  2  0  0  0  0
  1  4  1  0  0  0  0
  4  5  1  0  0  0  0
  4  6  1  0  0  0  0
  4  7  1  0  0  0  0
  7  8  1  0  0  0  0
  7  9  1  0  0  0  0
  7 10  1  0  0  0  0
 10 11  1  0  0  0  0
 10 12  1  0  0  0  0
 10 13  1  0  0  0  0
 13 14  1  0  0  0  0
 13 15  1  0  0  0  0
 13 16  1  0  0  0  0
 16 17  1  0  0  0  0
 16 18  1  0  0  0  0
 16 19  1  0  0  0  0
 19 20  1  0  0  0  0
 19 21  1  0  0  0  0
 19 22  1  0  0  0  0
M  END
> <VConfSearch Rank>
455

> <Conf_Id>
93

> <Delta U+W>
1.836

> <U+W>
-51.323

> <U>
10.427

> <W>
-61.751

> <W(PB)>
-63.980

> <W(SA)>
2.230

> <Valence>
8.446

> <Coulomb>
1.306

> <VdW>
0.676

> <VdW6>
-8.928

> <VdW12>
9.604

> <Bond>
0.209

> <Angle>
3.066

> <Pdih>
5.170

> <Idih>
0.001

> <Tether>
0.000

$$$$
VeraChem MOL file


 22 21  0  0  0  0  0  0  0  0999 V2000     
   18.9455   17.8418   19.7404 C   0  0  0  0  0  0  0  0  0  0  0  0
   18.6542   18.4537   18.7314 O   0  5  0  0  0  0  0  0  0  0  0  0
   18.1795   17.0967   20.3191 O   0  0  0  0  0  0  0  0  0  0  0  0
   20.3603   17.9958   20.2915 C   0  0  0  0  0  0  0  0  0  0  0  0
   21.0536   17.8340   19.4579 H   0  0  0  0  0  0  0  0  0  0  0  0
   20.5475   17.1896   21.0096 H   0  0  0  0  0  0  0  0  0  0  0  0
   20.6451   19.3815   20.9333 C   0  0  0  0  0  0  0  0  0  0  0  0
   21.6963   19.4234   21.2489 H   0  0  0  0  0  0  0  0  0  0  0  0
   20.5246   20.1559   20.1631 H   0  0  0  0  0  0  0  0  0  0  0  0
   19.7370   19.7335   22.1375 C   0  0  0  0  0  0  0  0  0  0  0  0
   18.6846   19.7290   21.8223 H   0  0  0  0  0  0  0  0  0  0  0  0
   19.9640   20.7626   22.4430 H   0  0  0  0  0  0  0  0  0  0  0  0
   19.9209   18.7837   23.3465 C   0  0  0  0  0  0  0  0  0  0  0  0
   19.6686   17.7592   23.0439 H   0  0  0  0  0  0  0  0  0  0  0  0
   20.9758   18.7703   23.6523 H   0  0  0  0  0  0  0  0  0  0  0  0
   19.0347   19.1539   24.5587 C   0  0  0  0  0  0  0  0  0  0  0  0
   19.1165   18.3563   25.3099 H   0  0  0  0  0  0  0  0  0  0  0  0
   17.9801   19.1834   24.2517 H   0  0  0  0  0  0  0  0  0  0  0  0
   19.4236   20.4954   25.2176 C   0  0  0  0  0  0  0  0  0  0  0  0
   19.2425   21.3417   24.5436 H   0  0  0  0  0  0  0  0  0  0  0  0
   20.4841   20.5009   25.5013 H   0  0  0  0  0  0  0  0  0  0  0  0
   18.8302   20.6625   26.1258 H   0  0  0  0  0  0  0  0  0  0  0  0
  1  2  1  0  0  0  0
  1  3  2  0  0  0  0
  1  4  1  0  0  0  0
  4  5  1  0  0  0  0
  4  6  1  0  0  0  0
  4  7  1  0  0  0  0
  7  8  1  0  0  0  0
  7  9  1  0  0  0  0
  7 10  1  0  0  0  0
 10 11  1  0  0  0  0
 10 12  1  0  0  0  0
 10 13  1  0  0  0  0
 13 14  1  0  0  0  0
 13 15  1  0  0  0  0
 13 16  1  0  0  0  0
 16 17  1  0  0  0  0
 16 18  1  0  0  0  0
 16 19  1  0  0  0  0
 19 20  1  0  0  0  0
 19 21  1  0  0  0  0
 19 22  1  0  0  0  0
M  END
> <VConfSearch Rank>
456

> <Conf_Id>
70

> <Delta U+W>
1.803

> <U+W>
-51.356

> <U>
10.428

> <W>
-61.784

> <W(PB)>
-64.014

> <W(SA)>
2.230

> <Valence>
8.445

> <Coulomb>
1.306

> <VdW>
0.676

> <VdW6>
-8.929

> <VdW12>
9.605

> <Bond>
0.209

> <Angle>
3.066

> <Pdih>
5.170

> <Idih>
0.001

> <Tether>
0.000

$$$$
VeraChem MOL file


 22 21  0  0  0  0  0  0  0  0999 V2000     
   19.9643   19.6110   19.1211 C   0  0  0  0  0  0  0  0  0  0  0  0
   20.9813   20.2701   19.0302 O   0  5  0  0  0  0  0  0  0  0  0  0
   18.8835   19.9819   18.7072 O   0  0  0  0  0  0  0  0  0  0  0  0
   20.0558   18.2337   19.7720 C   0  0  0  0  0  0  0  0  0  0  0  0
   20.9403   17.7339   19.3599 H   0  0  0  0  0  0  0  0  0  0  0  0
   19.1850   17.6424   19.4641 H   0  0  0  0  0  0  0  0  0  0  0  0
   20.1572   18.2739   21.3189 C   0  0  0  0  0  0  0  0  0  0  0  0
   20.3502   17.2585   21.6903 H   0  0  0  0  0  0  0  0  0  0  0  0
   21.0234   18.8862   21.6025 H   0  0  0  0  0  0  0  0  0  0  0  0
   18.8722   18.8248   21.9821 C   0  0  0  0  0  0  0  0  0  0  0  0
   18.0085   18.2530   21.6162 H   0  0  0  0  0  0  0  0  0  0  0  0
   18.7082   19.8657   21.6706 H   0  0  0  0  0  0  0  0  0  0  0  0
   18.8942   18.7468   23.5271 C   0  0  0  0  0  0  0  0  0  0  0  0
   17.9050   19.0399   23.9043 H   0  0  0  0  0  0  0  0  0  0  0  0
   19.0503   17.7057   23.8412 H   0  0  0  0  0  0  0  0  0  0  0  0
   19.9662   19.6526   24.1739 C   0  0  0  0  0  0  0  0  0  0  0  0
   19.8426   20.6849   23.8182 H   0  0  0  0  0  0  0  0  0  0  0  0
   20.9699   19.3272   23.8704 H   0  0  0  0  0  0  0  0  0  0  0  0
   19.8747   19.6267   25.7130 C   0  0  0  0  0  0  0  0  0  0  0  0
   18.8944   19.9839   26.0547 H   0  0  0  0  0  0  0  0  0  0  0  0
   20.6438   20.2719   26.1570 H   0  0  0  0  0  0  0  0  0  0  0  0
   20.0223   18.6091   26.0977 H   0  0  0  0  0  0  0  0  0  0  0  0
  1  2  1  0  0  0  0
  1  3  2  0  0  0  0
  1  4  1  0  0  0  0
  4  5  1  0  0  0  0
  4  6  1  0  0  0  0
  4  7  1  0  0  0  0
  7  8  1  0  0  0  0
  7  9  1  0  0  0  0
  7 10  1  0  0  0  0
 10 11  1  0  0  0  0
 10 12  1  0  0  0  0
 10 13  1  0  0  0  0
 13 14  1  0  0  0  0
 13 15  1  0  0  0  0
 13 16  1  0  0  0  0
 16 17  1  0  0  0  0
 16 18  1  0  0  0  0
 16 19  1  0  0  0  0
 19 20  1  0  0  0  0
 19 21  1  0  0  0  0
 19 22  1  0  0  0  0
M  END
> <VConfSearch Rank>
457

> <Conf_Id>
85

> <Delta U+W>
0.707

> <U+W>
-52.452

> <U>
8.925

> <W>
-61.378

> <W(PB)>
-63.661

> <W(SA)>
2.283

> <Valence>
7.881

> <Coulomb>
0.349

> <VdW>
0.695

> <VdW6>
-8.049

> <VdW12>
8.743

> <Bond>
0.156

> <Angle>
2.660

> <Pdih>
5.064

> <Idih>
0.001

> <Tether>
0.000

$$$$
VeraChem MOL file


 22 21  0  0  0  0  0  0  0  0999 V2000     
   19.3163   18.5975   19.1024 C   0  0  0  0  0  0  0  0  0  0  0  0
   18.2403   19.0544   18.7700 O   0  5  0  0  0  0  0  0  0  0  0  0
   20.3563   18.8364   18.5209 O   0  0  0  0  0  0  0  0  0  0  0  0
   19.3625   17.6537   20.3010 C   0  0  0  0  0  0  0  0  0  0  0  0
   19.9747   16.7908   20.0137 H   0  0  0  0  0  0  0  0  0  0  0  0
   18.3503   17.2761   20.4896 H   0  0  0  0  0  0  0  0  0  0  0  0
   19.9437   18.2939   21.5886 C   0  0  0  0  0  0  0  0  0  0  0  0
   20.0806   17.5027   22.3363 H   0  0  0  0  0  0  0  0  0  0  0  0
   20.9378   18.7095   21.3731 H   0  0  0  0  0  0  0  0  0  0  0  0
   19.0278   19.3951   22.1714 C   0  0  0  0  0  0  0  0  0  0  0  0
   18.0657   18.9526   22.4634 H   0  0  0  0  0  0  0  0  0  0  0  0
   18.8016   20.1292   21.3861 H   0  0  0  0  0  0  0  0  0  0  0  0
   19.6339   20.1535   23.3789 C   0  0  0  0  0  0  0  0  0  0  0  0
   20.5497   20.6776   23.0731 H   0  0  0  0  0  0  0  0  0  0  0  0
   18.9222   20.9399   23.6651 H   0  0  0  0  0  0  0  0  0  0  0  0
   19.9084   19.2758   24.6255 C   0  0  0  0  0  0  0  0  0  0  0  0
   19.2207   18.4192   24.6477 H   0  0  0  0  0  0  0  0  0  0  0  0
   19.6894   19.8663   25.5258 H   0  0  0  0  0  0  0  0  0  0  0  0
   21.3723   18.7905   24.7180 C   0  0  0  0  0  0  0  0  0  0  0  0
   21.6554   18.1788   23.8540 H   0  0  0  0  0  0  0  0  0  0  0  0
   21.5191   18.1836   25.6208 H   0  0  0  0  0  0  0  0  0  0  0  0
   22.0629   19.6422   24.7704 H   0  0  0  0  0  0  0  0  0  0  0  0
  1  2  1  0  0  0  0
  1  3  2  0  0  0  0
  1  4  1  0  0  0  0
  4  5  1  0  0  0  0
  4  6  1  0  0  0  0
  4  7  1  0  0  0  0
  7  8  1  0  0  0  0
  7  9  1  0  0  0  0
  7 10  1  0  0  0  0
 10 11  1  0  0  0  0
 10 12  1  0  0  0  0
 10 13  1  0  0  0  0
 13 14  1  0  0  0  0
 13 15  1  0  0  0  0
 13 16  1  0  0  0  0
 16 17  1  0  0  0  0
 16 18  1  0  0  0  0
 16 19  1  0  0  0  0
 19 20  1  0  0  0  0
 19 21  1  0  0  0  0
 19 22  1  0  0  0  0
M  END
> <VConfSearch Rank>
458

> <Conf_Id>
82

> <Delta U+W>
3.438

> <U+W>
-49.721

> <U>
11.773

> <W>
-61.495

> <W(PB)>
-63.749

> <W(SA)>
2.254

> <Valence>
10.419

> <Coulomb>
0.565

> <VdW>
0.789

> <VdW6>
-8.847

> <VdW12>
9.636

> <Bond>
0.200

> <Angle>
3.187

> <Pdih>
7.032

> <Idih>
0.001

> <Tether>
0.000

$$$$
VeraChem MOL file


 22 21  0  0  0  0  0  0  0  0999 V2000     
   23.0445   17.7483   22.6517 C   0  0  0  0  0  0  0  0  0  0  0  0
   23.7541   18.6552   23.0402 O   0  5  0  0  0  0  0  0  0  0  0  0
   23.0851   16.6216   23.1055 O   0  0  0  0  0  0  0  0  0  0  0  0
   22.0661   18.0362   21.5163 C   0  0  0  0  0  0  0  0  0  0  0  0
   21.7662   17.0844   21.0615 H   0  0  0  0  0  0  0  0  0  0  0  0
   22.6124   18.5966   20.7486 H   0  0  0  0  0  0  0  0  0  0  0  0
   20.8128   18.8408   21.9496 C   0  0  0  0  0  0  0  0  0  0  0  0
   21.1284   19.7692   22.4455 H   0  0  0  0  0  0  0  0  0  0  0  0
   20.2590   19.1297   21.0475 H   0  0  0  0  0  0  0  0  0  0  0  0
   19.8819   18.0346   22.8847 C   0  0  0  0  0  0  0  0  0  0  0  0
   20.4661   17.6518   23.7327 H   0  0  0  0  0  0  0  0  0  0  0  0
   19.5032   17.1526   22.3505 H   0  0  0  0  0  0  0  0  0  0  0  0
   18.6893   18.8464   23.4495 C   0  0  0  0  0  0  0  0  0  0  0  0
   18.1395   18.1894   24.1372 H   0  0  0  0  0  0  0  0  0  0  0  0
   19.0580   19.6791   24.0640 H   0  0  0  0  0  0  0  0  0  0  0  0
   17.6944   19.3666   22.3820 C   0  0  0  0  0  0  0  0  0  0  0  0
   16.6773   19.3129   22.7942 H   0  0  0  0  0  0  0  0  0  0  0  0
   17.7018   18.7093   21.5015 H   0  0  0  0  0  0  0  0  0  0  0  0
   17.9619   20.8290   21.9616 C   0  0  0  0  0  0  0  0  0  0  0  0
   17.8839   21.5033   22.8244 H   0  0  0  0  0  0  0  0  0  0  0  0
   17.2267   21.1542   21.2142 H   0  0  0  0  0  0  0  0  0  0  0  0
   18.9596   20.9528   21.5255 H   0  0  0  0  0  0  0  0  0  0  0  0
  1  2  1  0  0  0  0
  1  3  2  0  0  0  0
  1  4  1  0  0  0  0
  4  5  1  0  0  0  0
  4  6  1  0  0  0  0
  4  7  1  0  0  0  0
  7  8  1  0  0  0  0
  7  9  1  0  0  0  0
  7 10  1  0  0  0  0
 10 11  1  0  0  0  0
 10 12  1  0  0  0  0
 10 13  1  0  0  0  0
 13 14  1  0  0  0  0
 13 15  1  0  0  0  0
 13 16  1  0  0  0  0
 16 17  1  0  0  0  0
 16 18  1  0  0  0  0
 16 19  1  0  0  0  0
 19 20  1  0  0  0  0
 19 21  1  0  0  0  0
 19 22  1  0  0  0  0
M  END
> <VConfSearch Rank>
459

> <Conf_Id>
94

> <Delta U+W>
3.471

> <U+W>
-49.688

> <U>
11.773

> <W>
-61.461

> <W(PB)>
-63.710

> <W(SA)>
2.248

> <Valence>
10.419

> <Coulomb>
0.566

> <VdW>
0.789

> <VdW6>
-8.847

> <VdW12>
9.636

> <Bond>
0.200

> <Angle>
3.187

> <Pdih>
7.032

> <Idih>
0.001

> <Tether>
0.000

$$$$
VeraChem MOL file


 22 21  0  0  0  0  0  0  0  0999 V2000     
   16.7326   17.9455   21.8792 C   0  0  0  0  0  0  0  0  0  0  0  0
   15.8191   17.7120   22.6458 O   0  5  0  0  0  0  0  0  0  0  0  0
   16.8929   17.3610   20.8260 O   0  0  0  0  0  0  0  0  0  0  0  0
   17.7437   19.0175   22.2697 C   0  0  0  0  0  0  0  0  0  0  0  0
   17.2193   19.7857   22.8503 H   0  0  0  0  0  0  0  0  0  0  0  0
   18.0999   19.4918   21.3482 H   0  0  0  0  0  0  0  0  0  0  0  0
   18.9346   18.4506   23.0852 C   0  0  0  0  0  0  0  0  0  0  0  0
   18.5402   17.9114   23.9575 H   0  0  0  0  0  0  0  0  0  0  0  0
   19.4699   17.7041   22.4834 H   0  0  0  0  0  0  0  0  0  0  0  0
   19.9185   19.5398   23.5811 C   0  0  0  0  0  0  0  0  0  0  0  0
   20.6978   19.0635   24.1903 H   0  0  0  0  0  0  0  0  0  0  0  0
   19.3837   20.2177   24.2600 H   0  0  0  0  0  0  0  0  0  0  0  0
   20.5866   20.3842   22.4640 C   0  0  0  0  0  0  0  0  0  0  0  0
   19.8221   20.9883   21.9584 H   0  0  0  0  0  0  0  0  0  0  0  0
   21.2714   21.1042   22.9321 H   0  0  0  0  0  0  0  0  0  0  0  0
   21.3676   19.5718   21.4019 C   0  0  0  0  0  0  0  0  0  0  0  0
   21.7704   20.2688   20.6543 H   0  0  0  0  0  0  0  0  0  0  0  0
   20.6849   18.9049   20.8586 H   0  0  0  0  0  0  0  0  0  0  0  0
   22.5334   18.7526   21.9965 C   0  0  0  0  0  0  0  0  0  0  0  0
   23.2205   19.3983   22.5586 H   0  0  0  0  0  0  0  0  0  0  0  0
   23.1056   18.2629   21.1980 H   0  0  0  0  0  0  0  0  0  0  0  0
   22.1664   17.9694   22.6716 H   0  0  0  0  0  0  0  0  0  0  0  0
  1  2  1  0  0  0  0
  1  3  2  0  0  0  0
  1  4  1  0  0  0  0
  4  5  1  0  0  0  0
  4  6  1  0  0  0  0
  4  7  1  0  0  0  0
  7  8  1  0  0  0  0
  7  9  1  0  0  0  0
  7 10  1  0  0  0  0
 10 11  1  0  0  0  0
 10 12  1  0  0  0  0
 10 13  1  0  0  0  0
 13 14  1  0  0  0  0
 13 15  1  0  0  0  0
 13 16  1  0  0  0  0
 16 17  1  0  0  0  0
 16 18  1  0  0  0  0
 16 19  1  0  0  0  0
 19 20  1  0  0  0  0
 19 21  1  0  0  0  0
 19 22  1  0  0  0  0
M  END
> <VConfSearch Rank>
460

> <Conf_Id>
56

> <Delta U+W>
0.853

> <U+W>
-52.307

> <U>
8.874

> <W>
-61.181

> <W(PB)>
-63.413

> <W(SA)>
2.232

> <Valence>
8.479

> <Coulomb>
-0.357

> <VdW>
0.753

> <VdW6>
-9.081

> <VdW12>
9.833

> <Bond>
0.221

> <Angle>
3.208

> <Pdih>
5.050

> <Idih>
0.000

> <Tether>
0.000

$$$$
VeraChem MOL file


 22 21  0  0  0  0  0  0  0  0999 V2000     
   22.4880   16.3715   20.5141 C   0  0  0  0  0  0  0  0  0  0  0  0
   22.0741   15.4294   21.1618 O   0  5  0  0  0  0  0  0  0  0  0  0
   23.4016   16.2795   19.7187 O   0  0  0  0  0  0  0  0  0  0  0  0
   21.8490   17.7504   20.6868 C   0  0  0  0  0  0  0  0  0  0  0  0
   21.4924   18.0713   19.7009 H   0  0  0  0  0  0  0  0  0  0  0  0
   22.6444   18.4448   20.9820 H   0  0  0  0  0  0  0  0  0  0  0  0
   20.6863   17.8182   21.7125 C   0  0  0  0  0  0  0  0  0  0  0  0
   19.8957   17.1157   21.4142 H   0  0  0  0  0  0  0  0  0  0  0  0
   21.0488   17.4897   22.6965 H   0  0  0  0  0  0  0  0  0  0  0  0
   20.1008   19.2427   21.8235 C   0  0  0  0  0  0  0  0  0  0  0  0
   19.7391   19.5689   20.8387 H   0  0  0  0  0  0  0  0  0  0  0  0
   20.8930   19.9432   22.1217 H   0  0  0  0  0  0  0  0  0  0  0  0
   18.9445   19.3079   22.8444 C   0  0  0  0  0  0  0  0  0  0  0  0
   18.1521   18.6075   22.5467 H   0  0  0  0  0  0  0  0  0  0  0  0
   19.3057   18.9818   23.8295 H   0  0  0  0  0  0  0  0  0  0  0  0
   18.3589   20.7312   22.9559 C   0  0  0  0  0  0  0  0  0  0  0  0
   17.9946   21.0600   21.9727 H   0  0  0  0  0  0  0  0  0  0  0  0
   19.1484   21.4343   23.2554 H   0  0  0  0  0  0  0  0  0  0  0  0
   17.2046   20.7920   23.9763 C   0  0  0  0  0  0  0  0  0  0  0  0
   16.3863   20.1208   23.6842 H   0  0  0  0  0  0  0  0  0  0  0  0
   16.8003   21.8104   24.0428 H   0  0  0  0  0  0  0  0  0  0  0  0
   17.5487   20.4980   24.9766 H   0  0  0  0  0  0  0  0  0  0  0  0
  1  2  1  0  0  0  0
  1  3  2  0  0  0  0
  1  4  1  0  0  0  0
  4  5  1  0  0  0  0
  4  6  1  0  0  0  0
  4  7  1  0  0  0  0
  7  8  1  0  0  0  0
  7  9  1  0  0  0  0
  7 10  1  0  0  0  0
 10 11  1  0  0  0  0
 10 12  1  0  0  0  0
 10 13  1  0  0  0  0
 13 14  1  0  0  0  0
 13 15  1  0  0  0  0
 13 16  1  0  0  0  0
 16 17  1  0  0  0  0
 16 18  1  0  0  0  0
 16 19  1  0  0  0  0
 19 20  1  0  0  0  0
 19 21  1  0  0  0  0
 19 22  1  0  0  0  0
M  END
> <VConfSearch Rank>
461

> <Conf_Id>
0

> <Delta U+W>
0.000

> <U+W>
-53.159

> <U>
6.763

> <W>
-59.922

> <W(PB)>
-62.256

> <W(SA)>
2.334

> <Valence>
7.600

> <Coulomb>
-2.139

> <VdW>
1.302

> <VdW6>
-6.786

> <VdW12>
8.088

> <Bond>
0.134

> <Angle>
2.720

> <Pdih>
4.746

> <Idih>
0.000

> <Tether>
0.000

$$$$
VeraChem MOL file


 22 21  0  0  0  0  0  0  0  0999 V2000     
   20.6797   19.1154   26.0905 C   0  0  0  0  0  0  0  0  0  0  0  0
   20.4448   18.0860   26.6919 O   0  5  0  0  0  0  0  0  0  0  0  0
   20.5854   20.2209   26.5860 O   0  0  0  0  0  0  0  0  0  0  0  0
   21.0940   19.0156   24.6268 C   0  0  0  0  0  0  0  0  0  0  0  0
   21.6609   18.0860   24.4958 H   0  0  0  0  0  0  0  0  0  0  0  0
   21.7771   19.8453   24.4087 H   0  0  0  0  0  0  0  0  0  0  0  0
   19.8876   19.0472   23.6564 C   0  0  0  0  0  0  0  0  0  0  0  0
   19.2071   18.2184   23.8963 H   0  0  0  0  0  0  0  0  0  0  0  0
   19.3233   19.9777   23.8092 H   0  0  0  0  0  0  0  0  0  0  0  0
   20.3332   18.9448   22.1817 C   0  0  0  0  0  0  0  0  0  0  0  0
   20.8981   18.0142   22.0327 H   0  0  0  0  0  0  0  0  0  0  0  0
   21.0143   19.7740   21.9456 H   0  0  0  0  0  0  0  0  0  0  0  0
   19.1286   18.9766   21.2168 C   0  0  0  0  0  0  0  0  0  0  0  0
   18.4473   18.1476   21.4526 H   0  0  0  0  0  0  0  0  0  0  0  0
   18.5635   19.9070   21.3655 H   0  0  0  0  0  0  0  0  0  0  0  0
   19.5731   18.8742   19.7427 C   0  0  0  0  0  0  0  0  0  0  0  0
   20.1371   17.9437   19.5895 H   0  0  0  0  0  0  0  0  0  0  0  0
   20.2533   19.7031   19.5024 H   0  0  0  0  0  0  0  0  0  0  0  0
   18.3673   18.9064   18.7823 C   0  0  0  0  0  0  0  0  0  0  0  0
   17.8026   19.8415   18.8920 H   0  0  0  0  0  0  0  0  0  0  0  0
   17.6854   18.0689   18.9799 H   0  0  0  0  0  0  0  0  0  0  0  0
   18.7014   18.8326   17.7393 H   0  0  0  0  0  0  0  0  0  0  0  0
  1  2  1  0  0  0  0
  1  3  2  0  0  0  0
  1  4  1  0  0  0  0
  4  5  1  0  0  0  0
  4  6  1  0  0  0  0
  4  7  1  0  0  0  0
  7  8  1  0  0  0  0
  7  9  1  0  0  0  0
  7 10  1  0  0  0  0
 10 11  1  0  0  0  0
 10 12  1  0  0  0  0
 10 13  1  0  0  0  0
 13 14  1  0  0  0  0
 13 15  1  0  0  0  0
 13 16  1  0  0  0  0
 16 17  1  0  0  0  0
 16 18  1  0  0  0  0
 16 19  1  0  0  0  0
 19 20  1  0  0  0  0
 19 21  1  0  0  0  0
 19 22  1  0  0  0  0
M  END
> <VConfSearch Rank>
462

> <Conf_Id>
10

> <Delta U+W>
-1.291

> <U+W>
-54.451

> <U>
5.779

> <W>
-60.230

> <W(PB)>
-62.557

> <W(SA)>
2.328

> <Valence>
7.101

> <Coulomb>
-2.079

> <VdW>
0.757

> <VdW6>
-6.496

> <VdW12>
7.253

> <Bond>
0.100

> <Angle>
2.262

> <Pdih>
4.738

> <Idih>
0.001

> <Tether>
0.000

$$$$
VeraChem MOL file


 22 21  0  0  0  0  0  0  0  0999 V2000     
   23.4944   19.6549   20.9602 C   0  0  0  0  0  0  0  0  0  0  0  0
   23.6159   20.7696   20.4920 O   0  5  0  0  0  0  0  0  0  0  0  0
   24.4093   19.0324   21.4622 O   0  0  0  0  0  0  0  0  0  0  0  0
   22.1131   19.0103   20.9355 C   0  0  0  0  0  0  0  0  0  0  0  0
   22.2448   17.9262   20.8347 H   0  0  0  0  0  0  0  0  0  0  0  0
   21.5907   19.3584   20.0363 H   0  0  0  0  0  0  0  0  0  0  0  0
   21.2762   19.3318   22.1981 C   0  0  0  0  0  0  0  0  0  0  0  0
   21.8191   18.9891   23.0899 H   0  0  0  0  0  0  0  0  0  0  0  0
   21.1641   20.4210   22.2916 H   0  0  0  0  0  0  0  0  0  0  0  0
   19.8829   18.6680   22.1487 C   0  0  0  0  0  0  0  0  0  0  0  0
   19.9981   17.5793   22.0574 H   0  0  0  0  0  0  0  0  0  0  0  0
   19.3524   19.0115   21.2511 H   0  0  0  0  0  0  0  0  0  0  0  0
   19.0501   18.9951   23.4095 C   0  0  0  0  0  0  0  0  0  0  0  0
   19.6248   18.7100   24.3014 H   0  0  0  0  0  0  0  0  0  0  0  0
   18.8898   20.0799   23.4763 H   0  0  0  0  0  0  0  0  0  0  0  0
   17.6862   18.2674   23.4513 C   0  0  0  0  0  0  0  0  0  0  0  0
   17.2141   18.4592   24.4247 H   0  0  0  0  0  0  0  0  0  0  0  0
   17.8429   17.1816   23.3910 H   0  0  0  0  0  0  0  0  0  0  0  0
   16.7197   18.7156   22.3336 C   0  0  0  0  0  0  0  0  0  0  0  0
   15.7394   18.2381   22.4597 H   0  0  0  0  0  0  0  0  0  0  0  0
   17.0983   18.4391   21.3417 H   0  0  0  0  0  0  0  0  0  0  0  0
   16.5711   19.8031   22.3553 H   0  0  0  0  0  0  0  0  0  0  0  0
  1  2  1  0  0  0  0
  1  3  2  0  0  0  0
  1  4  1  0  0  0  0
  4  5  1  0  0  0  0
  4  6  1  0  0  0  0
  4  7  1  0  0  0  0
  7  8  1  0  0  0  0
  7  9  1  0  0  0  0
  7 10  1  0  0  0  0
 10 11  1  0  0  0  0
 10 12  1  0  0  0  0
 10 13  1  0  0  0  0
 13 14  1  0  0  0  0
 13 15  1  0  0  0  0
 13 16  1  0  0  0  0
 16 17  1  0  0  0  0
 16 18  1  0  0  0  0
 16 19  1  0  0  0  0
 19 20  1  0  0  0  0
 19 21  1  0  0  0  0
 19 22  1  0  0  0  0
M  END
> <VConfSearch Rank>
463

> <Conf_Id>
37

> <Delta U+W>
-0.345

> <U+W>
-53.504

> <U>
6.751

> <W>
-60.255

> <W(PB)>
-62.592

> <W(SA)>
2.336

> <Valence>
7.602

> <Coulomb>
-1.744

> <VdW>
0.894

> <VdW6>
-7.110

> <VdW12>
8.004

> <Bond>
0.131

> <Angle>
2.489

> <Pdih>
4.982

> <Idih>
0.001

> <Tether>
0.000

$$$$
VeraChem MOL file


 22 21  0  0  0  0  0  0  0  0999 V2000     
   20.6674   15.5579   23.7996 C   0  0  0  0  0  0  0  0  0  0  0  0
   19.9093   15.2511   24.6982 O   0  5  0  0  0  0  0  0  0  0  0  0
   21.8148   15.1654   23.7236 O   0  0  0  0  0  0  0  0  0  0  0  0
   20.1575   16.5052   22.7193 C   0  0  0  0  0  0  0  0  0  0  0  0
   19.0858   16.3186   22.5807 H   0  0  0  0  0  0  0  0  0  0  0  0
   20.6559   16.2474   21.7771 H   0  0  0  0  0  0  0  0  0  0  0  0
   20.4005   17.9957   23.0622 C   0  0  0  0  0  0  0  0  0  0  0  0
   19.9058   18.2346   24.0138 H   0  0  0  0  0  0  0  0  0  0  0  0
   21.4764   18.1626   23.2111 H   0  0  0  0  0  0  0  0  0  0  0  0
   19.8758   18.9336   21.9534 C   0  0  0  0  0  0  0  0  0  0  0  0
   18.8027   18.7535   21.8079 H   0  0  0  0  0  0  0  0  0  0  0  0
   20.3737   18.6939   21.0039 H   0  0  0  0  0  0  0  0  0  0  0  0
   20.1173   20.4203   22.3022 C   0  0  0  0  0  0  0  0  0  0  0  0
   19.5787   20.6764   23.2248 H   0  0  0  0  0  0  0  0  0  0  0  0
   21.1851   20.5689   22.5139 H   0  0  0  0  0  0  0  0  0  0  0  0
   19.7009   21.3920   21.1736 C   0  0  0  0  0  0  0  0  0  0  0  0
   20.2426   21.1429   20.2507 H   0  0  0  0  0  0  0  0  0  0  0  0
   20.0122   22.4086   21.4512 H   0  0  0  0  0  0  0  0  0  0  0  0
   18.1814   21.3952   20.8993 C   0  0  0  0  0  0  0  0  0  0  0  0
   17.6172   21.6125   21.8156 H   0  0  0  0  0  0  0  0  0  0  0  0
   17.8429   20.4280   20.5073 H   0  0  0  0  0  0  0  0  0  0  0  0
   17.9273   22.1620   20.1561 H   0  0  0  0  0  0  0  0  0  0  0  0
  1  2  1  0  0  0  0
  1  3  2  0  0  0  0
  1  4  1  0  0  0  0
  4  5  1  0  0  0  0
  4  6  1  0  0  0  0
  4  7  1  0  0  0  0
  7  8  1  0  0  0  0
  7  9  1  0  0  0  0
  7 10  1  0  0  0  0
 10 11  1  0  0  0  0
 10 12  1  0  0  0  0
 10 13  1  0  0  0  0
 13 14  1  0  0  0  0
 13 15  1  0  0  0  0
 13 16  1  0  0  0  0
 16 17  1  0  0  0  0
 16 18  1  0  0  0  0
 16 19  1  0  0  0  0
 19 20  1  0  0  0  0
 19 21  1  0  0  0  0
 19 22  1  0  0  0  0
M  END
> <VConfSearch Rank>
464

> <Conf_Id>
38

> <Delta U+W>
-0.439

> <U+W>
-53.598

> <U>
6.751

> <W>
-60.350

> <W(PB)>
-62.659

> <W(SA)>
2.309

> <Valence>
7.602

> <Coulomb>
-1.744

> <VdW>
0.893

> <VdW6>
-7.110

> <VdW12>
8.004

> <Bond>
0.131

> <Angle>
2.489

> <Pdih>
4.981

> <Idih>
0.001

> <Tether>
0.000

$$$$
VeraChem MOL file


 22 21  0  0  0  0  0  0  0  0999 V2000     
   18.6259   21.6641   24.6029 C   0  0  0  0  0  0  0  0  0  0  0  0
   17.4690   21.7552   24.9632 O   0  5  0  0  0  0  0  0  0  0  0  0
   19.4216   22.5808   24.6573 O   0  0  0  0  0  0  0  0  0  0  0  0
   19.0988   20.3327   24.0301 C   0  0  0  0  0  0  0  0  0  0  0  0
   18.5419   19.5308   24.5293 H   0  0  0  0  0  0  0  0  0  0  0  0
   20.1543   20.2118   24.2978 H   0  0  0  0  0  0  0  0  0  0  0  0
   18.9086   20.2398   22.4936 C   0  0  0  0  0  0  0  0  0  0  0  0
   17.8592   20.4625   22.2558 H   0  0  0  0  0  0  0  0  0  0  0  0
   19.5094   21.0169   22.0011 H   0  0  0  0  0  0  0  0  0  0  0  0
   19.2644   18.8529   21.9065 C   0  0  0  0  0  0  0  0  0  0  0  0
   18.9640   18.8440   20.8511 H   0  0  0  0  0  0  0  0  0  0  0  0
   18.6683   18.0776   22.4068 H   0  0  0  0  0  0  0  0  0  0  0  0
   20.7698   18.5064   22.0155 C   0  0  0  0  0  0  0  0  0  0  0  0
   21.3658   19.2827   21.5167 H   0  0  0  0  0  0  0  0  0  0  0  0
   21.0709   18.5120   23.0706 H   0  0  0  0  0  0  0  0  0  0  0  0
   21.1256   17.1221   21.4247 C   0  0  0  0  0  0  0  0  0  0  0  0
   20.5229   16.3439   21.9131 H   0  0  0  0  0  0  0  0  0  0  0  0
   22.1742   16.8973   21.6635 H   0  0  0  0  0  0  0  0  0  0  0  0
   20.9387   17.0409   19.8939 C   0  0  0  0  0  0  0  0  0  0  0  0
   19.8830   17.1380   19.6122 H   0  0  0  0  0  0  0  0  0  0  0  0
   21.2951   16.0743   19.5150 H   0  0  0  0  0  0  0  0  0  0  0  0
   21.5055   17.8323   19.3863 H   0  0  0  0  0  0  0  0  0  0  0  0
  1  2  1  0  0  0  0
  1  3  2  0  0  0  0
  1  4  1  0  0  0  0
  4  5  1  0  0  0  0
  4  6  1  0  0  0  0
  4  7  1  0  0  0  0
  7  8  1  0  0  0  0
  7  9  1  0  0  0  0
  7 10  1  0  0  0  0
 10 11  1  0  0  0  0
 10 12  1  0  0  0  0
 10 13  1  0  0  0  0
 13 14  1  0  0  0  0
 13 15  1  0  0  0  0
 13 16  1  0  0  0  0
 16 17  1  0  0  0  0
 16 18  1  0  0  0  0
 16 19  1  0  0  0  0
 19 20  1  0  0  0  0
 19 21  1  0  0  0  0
 19 22  1  0  0  0  0
M  END
> <VConfSearch Rank>
465

> <Conf_Id>
60

> <Delta U+W>
0.386

> <U+W>
-52.773

> <U>
7.689

> <W>
-60.463

> <W(PB)>
-62.772

> <W(SA)>
2.309

> <Valence>
8.197

> <Coulomb>
-1.561

> <VdW>
1.053

> <VdW6>
-7.737

> <VdW12>
8.790

> <Bond>
0.181

> <Angle>
2.780

> <Pdih>
5.235

> <Idih>
0.001

> <Tether>
0.000

$$$$
VeraChem MOL file


 22 21  0  0  0  0  0  0  0  0999 V2000     
   22.8193   19.6964   24.4247 C   0  0  0  0  0  0  0  0  0  0  0  0
   22.9209   18.8536   25.2941 O   0  5  0  0  0  0  0  0  0  0  0  0
   23.3555   20.7855   24.4776 O   0  0  0  0  0  0  0  0  0  0  0  0
   21.9530   19.3786   23.2110 C   0  0  0  0  0  0  0  0  0  0  0  0
   22.0372   18.3039   23.0148 H   0  0  0  0  0  0  0  0  0  0  0  0
   22.3757   19.9021   22.3452 H   0  0  0  0  0  0  0  0  0  0  0  0
   20.4696   19.7852   23.4103 C   0  0  0  0  0  0  0  0  0  0  0  0
   20.0426   19.2185   24.2493 H   0  0  0  0  0  0  0  0  0  0  0  0
   20.4320   20.8442   23.7009 H   0  0  0  0  0  0  0  0  0  0  0  0
   19.5967   19.5882   22.1478 C   0  0  0  0  0  0  0  0  0  0  0  0
   20.0308   20.1492   21.3091 H   0  0  0  0  0  0  0  0  0  0  0  0
   18.6123   20.0323   22.3432 H   0  0  0  0  0  0  0  0  0  0  0  0
   19.4201   18.1028   21.7474 C   0  0  0  0  0  0  0  0  0  0  0  0
   20.4035   17.6582   21.5487 H   0  0  0  0  0  0  0  0  0  0  0  0
   18.9877   17.5415   22.5869 H   0  0  0  0  0  0  0  0  0  0  0  0
   18.5439   17.9062   20.4882 C   0  0  0  0  0  0  0  0  0  0  0  0
   18.5824   16.8479   20.1953 H   0  0  0  0  0  0  0  0  0  0  0  0
   18.9668   18.4755   19.6489 H   0  0  0  0  0  0  0  0  0  0  0  0
   17.0676   18.3077   20.6982 C   0  0  0  0  0  0  0  0  0  0  0  0
   16.6337   17.7758   21.5548 H   0  0  0  0  0  0  0  0  0  0  0  0
   16.4727   18.0591   19.8098 H   0  0  0  0  0  0  0  0  0  0  0  0
   16.9655   19.3857   20.8739 H   0  0  0  0  0  0  0  0  0  0  0  0
  1  2  1  0  0  0  0
  1  3  2  0  0  0  0
  1  4  1  0  0  0  0
  4  5  1  0  0  0  0
  4  6  1  0  0  0  0
  4  7  1  0  0  0  0
  7  8  1  0  0  0  0
  7  9  1  0  0  0  0
  7 10  1  0  0  0  0
 10 11  1  0  0  0  0
 10 12  1  0  0  0  0
 10 13  1  0  0  0  0
 13 14  1  0  0  0  0
 13 15  1  0  0  0  0
 13 16  1  0  0  0  0
 16 17  1  0  0  0  0
 16 18  1  0  0  0  0
 16 19  1  0  0  0  0
 19 20  1  0  0  0  0
 19 21  1  0  0  0  0
 19 22  1  0  0  0  0
M  END
> <VConfSearch Rank>
466

> <Conf_Id>
28

> <Delta U+W>
0.351

> <U+W>
-52.808

> <U>
7.689

> <W>
-60.498

> <W(PB)>
-62.768

> <W(SA)>
2.270

> <Valence>
8.197

> <Coulomb>
-1.561

> <VdW>
1.053

> <VdW6>
-7.737

> <VdW12>
8.791

> <Bond>
0.181

> <Angle>
2.780

> <Pdih>
5.235

> <Idih>
0.001

> <Tether>
0.000

$$$$
VeraChem MOL file


 22 21  0  0  0  0  0  0  0  0999 V2000     
   17.5758   18.8903   25.1807 C   0  0  0  0  0  0  0  0  0  0  0  0
   17.7694   19.7269   26.0404 O   0  5  0  0  0  0  0  0  0  0  0  0
   16.4727   18.5942   24.7659 O   0  0  0  0  0  0  0  0  0  0  0  0
   18.7854   18.1875   24.5747 C   0  0  0  0  0  0  0  0  0  0  0  0
   18.4857   17.1689   24.3003 H   0  0  0  0  0  0  0  0  0  0  0  0
   19.5539   18.1012   25.3522 H   0  0  0  0  0  0  0  0  0  0  0  0
   19.3546   18.9275   23.3391 C   0  0  0  0  0  0  0  0  0  0  0  0
   18.5623   19.0190   22.5846 H   0  0  0  0  0  0  0  0  0  0  0  0
   19.6416   19.9480   23.6281 H   0  0  0  0  0  0  0  0  0  0  0  0
   20.5764   18.1912   22.7424 C   0  0  0  0  0  0  0  0  0  0  0  0
   20.2772   17.1893   22.4051 H   0  0  0  0  0  0  0  0  0  0  0  0
   21.3245   18.0423   23.5331 H   0  0  0  0  0  0  0  0  0  0  0  0
   21.2446   18.9530   21.5734 C   0  0  0  0  0  0  0  0  0  0  0  0
   21.5477   19.9534   21.9114 H   0  0  0  0  0  0  0  0  0  0  0  0
   22.1680   18.4257   21.2971 H   0  0  0  0  0  0  0  0  0  0  0  0
   20.3445   19.0760   20.3232 C   0  0  0  0  0  0  0  0  0  0  0  0
   19.4502   19.6682   20.5574 H   0  0  0  0  0  0  0  0  0  0  0  0
   19.9983   18.0795   20.0161 H   0  0  0  0  0  0  0  0  0  0  0  0
   21.0933   19.7415   19.1509 C   0  0  0  0  0  0  0  0  0  0  0  0
   21.9750   19.1541   18.8632 H   0  0  0  0  0  0  0  0  0  0  0  0
   21.4274   20.7517   19.4217 H   0  0  0  0  0  0  0  0  0  0  0  0
   20.4403   19.8246   18.2723 H   0  0  0  0  0  0  0  0  0  0  0  0
  1  2  1  0  0  0  0
  1  3  2  0  0  0  0
  1  4  1  0  0  0  0
  4  5  1  0  0  0  0
  4  6  1  0  0  0  0
  4  7  1  0  0  0  0
  7  8  1  0  0  0  0
  7  9  1  0  0  0  0
  7 10  1  0  0  0  0
 10 11  1  0  0  0  0
 10 12  1  0  0  0  0
 10 13  1  0  0  0  0
 13 14  1  0  0  0  0
 13 15  1  0  0  0  0
 13 16  1  0  0  0  0
 16 17  1  0  0  0  0
 16 18  1  0  0  0  0
 16 19  1  0  0  0  0
 19 20  1  0  0  0  0
 19 21  1  0  0  0  0
 19 22  1  0  0  0  0
M  END
> <VConfSearch Rank>
467

> <Conf_Id>
50

> <Delta U+W>
-0.486

> <U+W>
-53.646

> <U>
7.026

> <W>
-60.672

> <W(PB)>
-62.964

> <W(SA)>
2.292

> <Valence>
7.637

> <Coulomb>
-1.488

> <VdW>
0.877

> <VdW6>
-7.165

> <VdW12>
8.043

> <Bond>
0.134

> <Angle>
2.513

> <Pdih>
4.990

> <Idih>
0.001

> <Tether>
0.000

$$$$
VeraChem MOL file


 22 21  0  0  0  0  0  0  0  0999 V2000     
   17.0837   16.8537   23.7470 C   0  0  0  0  0  0  0  0  0  0  0  0
   16.0302   16.7856   23.1454 O   0  5  0  0  0  0  0  0  0  0  0  0
   17.1635   16.9538   24.9553 O   0  0  0  0  0  0  0  0  0  0  0  0
   18.3766   16.8331   22.9393 C   0  0  0  0  0  0  0  0  0  0  0  0
   18.2153   16.2055   22.0546 H   0  0  0  0  0  0  0  0  0  0  0  0
   19.1496   16.3461   23.5459 H   0  0  0  0  0  0  0  0  0  0  0  0
   18.8433   18.2473   22.5146 C   0  0  0  0  0  0  0  0  0  0  0  0
   18.0552   18.7248   21.9161 H   0  0  0  0  0  0  0  0  0  0  0  0
   18.9783   18.8613   23.4148 H   0  0  0  0  0  0  0  0  0  0  0  0
   20.1577   18.1971   21.7017 C   0  0  0  0  0  0  0  0  0  0  0  0
   20.0241   17.5176   20.8488 H   0  0  0  0  0  0  0  0  0  0  0  0
   20.9591   17.7678   22.3185 H   0  0  0  0  0  0  0  0  0  0  0  0
   20.6022   19.5776   21.1629 C   0  0  0  0  0  0  0  0  0  0  0  0
   21.4651   19.4305   20.4989 H   0  0  0  0  0  0  0  0  0  0  0  0
   19.8027   20.0055   20.5427 H   0  0  0  0  0  0  0  0  0  0  0  0
   20.9905   20.5777   22.2752 C   0  0  0  0  0  0  0  0  0  0  0  0
   21.7527   20.1293   22.9274 H   0  0  0  0  0  0  0  0  0  0  0  0
   20.1195   20.7998   22.9055 H   0  0  0  0  0  0  0  0  0  0  0  0
   21.5321   21.8959   21.6863 C   0  0  0  0  0  0  0  0  0  0  0  0
   20.7792   22.3802   21.0507 H   0  0  0  0  0  0  0  0  0  0  0  0
   22.4292   21.7164   21.0794 H   0  0  0  0  0  0  0  0  0  0  0  0
   21.8001   22.5963   22.4880 H   0  0  0  0  0  0  0  0  0  0  0  0
  1  2  1  0  0  0  0
  1  3  2  0  0  0  0
  1  4  1  0  0  0  0
  4  5  1  0  0  0  0
  4  6  1  0  0  0  0
  4  7  1  0  0  0  0
  7  8  1  0  0  0  0
  7  9  1  0  0  0  0
  7 10  1  0  0  0  0
 10 11  1  0  0  0  0
 10 12  1  0  0  0  0
 10 13  1  0  0  0  0
 13 14  1  0  0  0  0
 13 15  1  0  0  0  0
 13 16  1  0  0  0  0
 16 17  1  0  0  0  0
 16 18  1  0  0  0  0
 16 19  1  0  0  0  0
 19 20  1  0  0  0  0
 19 21  1  0  0  0  0
 19 22  1  0  0  0  0
M  END
> <VConfSearch Rank>
468

> <Conf_Id>
51

> <Delta U+W>
-0.517

> <U+W>
-53.677

> <U>
7.026

> <W>
-60.703

> <W(PB)>
-63.007

> <W(SA)>
2.304

> <Valence>
7.638

> <Coulomb>
-1.488

> <VdW>
0.877

> <VdW6>
-7.165

> <VdW12>
8.042

> <Bond>
0.134

> <Angle>
2.513

> <Pdih>
4.990

> <Idih>
0.001

> <Tether>
0.000

$$$$
VeraChem MOL file


 22 21  0  0  0  0  0  0  0  0999 V2000     
   16.5969   19.2276   21.6558 C   0  0  0  0  0  0  0  0  0  0  0  0
   15.9286   18.2845   22.0311 O   0  5  0  0  0  0  0  0  0  0  0  0
   16.4487   20.3620   22.0656 O   0  0  0  0  0  0  0  0  0  0  0  0
   17.6675   18.9744   20.5980 C   0  0  0  0  0  0  0  0  0  0  0  0
   17.9286   19.9304   20.1282 H   0  0  0  0  0  0  0  0  0  0  0  0
   17.2165   18.3501   19.8178 H   0  0  0  0  0  0  0  0  0  0  0  0
   18.9423   18.2804   21.1443 C   0  0  0  0  0  0  0  0  0  0  0  0
   18.6615   17.3388   21.6363 H   0  0  0  0  0  0  0  0  0  0  0  0
   19.5927   18.0144   20.3001 H   0  0  0  0  0  0  0  0  0  0  0  0
   19.7280   19.1727   22.1313 C   0  0  0  0  0  0  0  0  0  0  0  0
   19.0889   19.4291   22.9876 H   0  0  0  0  0  0  0  0  0  0  0  0
   19.9948   20.1179   21.6389 H   0  0  0  0  0  0  0  0  0  0  0  0
   21.0085   18.4748   22.6378 C   0  0  0  0  0  0  0  0  0  0  0  0
   20.7409   17.5297   23.1301 H   0  0  0  0  0  0  0  0  0  0  0  0
   21.6506   18.2199   21.7835 H   0  0  0  0  0  0  0  0  0  0  0  0
   21.7933   19.3649   23.6241 C   0  0  0  0  0  0  0  0  0  0  0  0
   21.1547   19.6205   24.4811 H   0  0  0  0  0  0  0  0  0  0  0  0
   22.0643   20.3106   23.1346 H   0  0  0  0  0  0  0  0  0  0  0  0
   23.0710   18.6645   24.1283 C   0  0  0  0  0  0  0  0  0  0  0  0
   22.8267   17.7300   24.6504 H   0  0  0  0  0  0  0  0  0  0  0  0
   23.6163   19.3111   24.8281 H   0  0  0  0  0  0  0  0  0  0  0  0
   23.7432   18.4254   23.2938 H   0  0  0  0  0  0  0  0  0  0  0  0
  1  2  1  0  0  0  0
  1  3  2  0  0  0  0
  1  4  1  0  0  0  0
  4  5  1  0  0  0  0
  4  6  1  0  0  0  0
  4  7  1  0  0  0  0
  7  8  1  0  0  0  0
  7  9  1  0  0  0  0
  7 10  1  0  0  0  0
 10 11  1  0  0  0  0
 10 12  1  0  0  0  0
 10 13  1  0  0  0  0
 13 14  1  0  0  0  0
 13 15  1  0  0  0  0
 13 16  1  0  0  0  0
 16 17  1  0  0  0  0
 16 18  1  0  0  0  0
 16 19  1  0  0  0  0
 19 20  1  0  0  0  0
 19 21  1  0  0  0  0
 19 22  1  0  0  0  0
M  END
> <VConfSearch Rank>
469

> <Conf_Id>
43

> <Delta U+W>
-0.129

> <U+W>
-53.289

> <U>
7.937

> <W>
-61.225

> <W(PB)>
-63.523

> <W(SA)>
2.297

> <Valence>
7.358

> <Coulomb>
-0.022

> <VdW>
0.601

> <VdW6>
-7.363

> <VdW12>
7.964

> <Bond>
0.121

> <Angle>
2.425

> <Pdih>
4.811

> <Idih>
0.000

> <Tether>
0.000

$$$$
VeraChem MOL file


 22 21  0  0  0  0  0  0  0  0999 V2000     
   18.8037   22.3673   22.9766 C   0  0  0  0  0  0  0  0  0  0  0  0
   18.8931   22.6708   24.1500 O   0  5  0  0  0  0  0  0  0  0  0  0
   17.7606   22.3908   22.3536 O   0  0  0  0  0  0  0  0  0  0  0  0
   20.0756   21.9519   22.2425 C   0  0  0  0  0  0  0  0  0  0  0  0
   20.8568   22.6750   22.5051 H   0  0  0  0  0  0  0  0  0  0  0  0
   19.9043   22.0475   21.1635 H   0  0  0  0  0  0  0  0  0  0  0  0
   20.5609   20.5189   22.5828 C   0  0  0  0  0  0  0  0  0  0  0  0
   21.5452   20.3573   22.1230 H   0  0  0  0  0  0  0  0  0  0  0  0
   20.7009   20.4304   23.6692 H   0  0  0  0  0  0  0  0  0  0  0  0
   19.5835   19.4280   22.0906 C   0  0  0  0  0  0  0  0  0  0  0  0
   19.4367   19.5289   21.0065 H   0  0  0  0  0  0  0  0  0  0  0  0
   18.6005   19.5728   22.5598 H   0  0  0  0  0  0  0  0  0  0  0  0
   20.1011   18.0094   22.4119 C   0  0  0  0  0  0  0  0  0  0  0  0
   21.0828   17.8611   21.9414 H   0  0  0  0  0  0  0  0  0  0  0  0
   20.2476   17.9093   23.4961 H   0  0  0  0  0  0  0  0  0  0  0  0
   19.1252   16.9195   21.9213 C   0  0  0  0  0  0  0  0  0  0  0  0
   18.9775   17.0154   20.8367 H   0  0  0  0  0  0  0  0  0  0  0  0
   18.1424   17.0635   22.3914 H   0  0  0  0  0  0  0  0  0  0  0  0
   19.6451   15.5043   22.2444 C   0  0  0  0  0  0  0  0  0  0  0  0
   20.6135   15.3216   21.7603 H   0  0  0  0  0  0  0  0  0  0  0  0
   18.9394   14.7423   21.8889 H   0  0  0  0  0  0  0  0  0  0  0  0
   19.7721   15.3701   23.3266 H   0  0  0  0  0  0  0  0  0  0  0  0
  1  2  1  0  0  0  0
  1  3  2  0  0  0  0
  1  4  1  0  0  0  0
  4  5  1  0  0  0  0
  4  6  1  0  0  0  0
  4  7  1  0  0  0  0
  7  8  1  0  0  0  0
  7  9  1  0  0  0  0
  7 10  1  0  0  0  0
 10 11  1  0  0  0  0
 10 12  1  0  0  0  0
 10 13  1  0  0  0  0
 13 14  1  0  0  0  0
 13 15  1  0  0  0  0
 13 16  1  0  0  0  0
 16 17  1  0  0  0  0
 16 18  1  0  0  0  0
 16 19  1  0  0  0  0
 19 20  1  0  0  0  0
 19 21  1  0  0  0  0
 19 22  1  0  0  0  0
M  END
> <VConfSearch Rank>
470

> <Conf_Id>
44

> <Delta U+W>
-0.155

> <U+W>
-53.314

> <U>
7.937

> <W>
-61.252

> <W(PB)>
-63.556

> <W(SA)>
2.304

> <Valence>
7.358

> <Coulomb>
-0.021

> <VdW>
0.600

> <VdW6>
-7.363

> <VdW12>
7.964

> <Bond>
0.121

> <Angle>
2.425

> <Pdih>
4.811

> <Idih>
0.001

> <Tether>
0.000

$$$$
VeraChem MOL file


 22 21  0  0  0  0  0  0  0  0999 V2000     
   20.2104   22.0357   20.5102 C   0  0  0  0  0  0  0  0  0  0  0  0
   21.3866   22.2405   20.2833 O   0  5  0  0  0  0  0  0  0  0  0  0
   19.4642   22.8654   20.9916 O   0  0  0  0  0  0  0  0  0  0  0  0
   19.6366   20.6674   20.1525 C   0  0  0  0  0  0  0  0  0  0  0  0
   19.9931   20.4162   19.1466 H   0  0  0  0  0  0  0  0  0  0  0  0
   18.5447   20.7503   20.0908 H   0  0  0  0  0  0  0  0  0  0  0  0
   20.0328   19.5378   21.1388 C   0  0  0  0  0  0  0  0  0  0  0  0
   19.7074   18.5785   20.7169 H   0  0  0  0  0  0  0  0  0  0  0  0
   21.1277   19.4938   21.2207 H   0  0  0  0  0  0  0  0  0  0  0  0
   19.4088   19.7289   22.5421 C   0  0  0  0  0  0  0  0  0  0  0  0
   18.3131   19.7303   22.4636 H   0  0  0  0  0  0  0  0  0  0  0  0
   19.6919   20.7166   22.9310 H   0  0  0  0  0  0  0  0  0  0  0  0
   19.8540   18.6578   23.5660 C   0  0  0  0  0  0  0  0  0  0  0  0
   20.9498   18.6566   23.6441 H   0  0  0  0  0  0  0  0  0  0  0  0
   19.4728   18.9439   24.5558 H   0  0  0  0  0  0  0  0  0  0  0  0
   19.3536   17.2350   23.2290 C   0  0  0  0  0  0  0  0  0  0  0  0
   19.7879   16.8957   22.2795 H   0  0  0  0  0  0  0  0  0  0  0  0
   18.2629   17.2472   23.0971 H   0  0  0  0  0  0  0  0  0  0  0  0
   19.7240   16.2284   24.3369 C   0  0  0  0  0  0  0  0  0  0  0  0
   20.8123   16.1759   24.4715 H   0  0  0  0  0  0  0  0  0  0  0  0
   19.3651   15.2229   24.0816 H   0  0  0  0  0  0  0  0  0  0  0  0
   19.2732   16.5155   25.2959 H   0  0  0  0  0  0  0  0  0  0  0  0
  1  2  1  0  0  0  0
  1  3  2  0  0  0  0
  1  4  1  0  0  0  0
  4  5  1  0  0  0  0
  4  6  1  0  0  0  0
  4  7  1  0  0  0  0
  7  8  1  0  0  0  0
  7  9  1  0  0  0  0
  7 10  1  0  0  0  0
 10 11  1  0  0  0  0
 10 12  1  0  0  0  0
 10 13  1  0  0  0  0
 13 14  1  0  0  0  0
 13 15  1  0  0  0  0
 13 16  1  0  0  0  0
 16 17  1  0  0  0  0
 16 18  1  0  0  0  0
 16 19  1  0  0  0  0
 19 20  1  0  0  0  0
 19 21  1  0  0  0  0
 19 22  1  0  0  0  0
M  END
> <VConfSearch Rank>
471

> <Conf_Id>
53

> <Delta U+W>
0.723

> <U+W>
-52.436

> <U>
8.587

> <W>
-61.022

> <W(PB)>
-63.285

> <W(SA)>
2.263

> <Valence>
7.933

> <Coulomb>
-0.124

> <VdW>
0.778

> <VdW6>
-7.981

> <VdW12>
8.759

> <Bond>
0.160

> <Angle>
2.698

> <Pdih>
5.074

> <Idih>
0.001

> <Tether>
0.000

$$$$
VeraChem MOL file


 22 21  0  0  0  0  0  0  0  0999 V2000     
   22.0310   18.9496   19.8912 C   0  0  0  0  0  0  0  0  0  0  0  0
   21.8493   17.9678   19.1987 O   0  5  0  0  0  0  0  0  0  0  0  0
   22.8649   19.7993   19.6479 O   0  0  0  0  0  0  0  0  0  0  0  0
   21.1495   19.1374   21.1207 C   0  0  0  0  0  0  0  0  0  0  0  0
   21.7321   19.6734   21.8794 H   0  0  0  0  0  0  0  0  0  0  0  0
   20.9220   18.1427   21.5201 H   0  0  0  0  0  0  0  0  0  0  0  0
   19.8400   19.9050   20.8089 C   0  0  0  0  0  0  0  0  0  0  0  0
   20.0945   20.8368   20.2850 H   0  0  0  0  0  0  0  0  0  0  0  0
   19.2334   19.3146   20.1084 H   0  0  0  0  0  0  0  0  0  0  0  0
   18.9941   20.2589   22.0578 C   0  0  0  0  0  0  0  0  0  0  0  0
   18.1255   20.8378   21.7153 H   0  0  0  0  0  0  0  0  0  0  0  0
   19.5589   20.9313   22.7180 H   0  0  0  0  0  0  0  0  0  0  0  0
   18.4747   19.0350   22.8539 C   0  0  0  0  0  0  0  0  0  0  0  0
   17.4689   19.2662   23.2306 H   0  0  0  0  0  0  0  0  0  0  0  0
   18.3592   18.1710   22.1852 H   0  0  0  0  0  0  0  0  0  0  0  0
   19.3667   18.6659   24.0618 C   0  0  0  0  0  0  0  0  0  0  0  0
   19.4256   19.5206   24.7497 H   0  0  0  0  0  0  0  0  0  0  0  0
   20.3919   18.4551   23.7350 H   0  0  0  0  0  0  0  0  0  0  0  0
   18.8148   17.4412   24.8187 C   0  0  0  0  0  0  0  0  0  0  0  0
   17.8020   17.6352   25.1953 H   0  0  0  0  0  0  0  0  0  0  0  0
   19.4544   17.1962   25.6766 H   0  0  0  0  0  0  0  0  0  0  0  0
   18.7745   16.5609   24.1637 H   0  0  0  0  0  0  0  0  0  0  0  0
  1  2  1  0  0  0  0
  1  3  2  0  0  0  0
  1  4  1  0  0  0  0
  4  5  1  0  0  0  0
  4  6  1  0  0  0  0
  4  7  1  0  0  0  0
  7  8  1  0  0  0  0
  7  9  1  0  0  0  0
  7 10  1  0  0  0  0
 10 11  1  0  0  0  0
 10 12  1  0  0  0  0
 10 13  1  0  0  0  0
 13 14  1  0  0  0  0
 13 15  1  0  0  0  0
 13 16  1  0  0  0  0
 16 17  1  0  0  0  0
 16 18  1  0  0  0  0
 16 19  1  0  0  0  0
 19 20  1  0  0  0  0
 19 21  1  0  0  0  0
 19 22  1  0  0  0  0
M  END
> <VConfSearch Rank>
472

> <Conf_Id>
5

> <Delta U+W>
2.167

> <U+W>
-50.993

> <U>
10.045

> <W>
-61.037

> <W(PB)>
-63.303

> <W(SA)>
2.266

> <Valence>
10.100

> <Coulomb>
-0.883

> <VdW>
0.828

> <VdW6>
-8.177

> <VdW12>
9.005

> <Bond>
0.182

> <Angle>
2.988

> <Pdih>
6.930

> <Idih>
0.001

> <Tether>
0.000

$$$$
VeraChem MOL file


 22 21  0  0  0  0  0  0  0  0999 V2000     
   21.7177   16.9533   24.3450 C   0  0  0  0  0  0  0  0  0  0  0  0
   22.8345   16.8520   23.8769 O   0  5  0  0  0  0  0  0  0  0  0  0
   21.3484   16.3588   25.3384 O   0  0  0  0  0  0  0  0  0  0  0  0
   20.7177   17.8580   23.6341 C   0  0  0  0  0  0  0  0  0  0  0  0
   21.2772   18.6963   23.2039 H   0  0  0  0  0  0  0  0  0  0  0  0
   20.0338   18.2680   24.3866 H   0  0  0  0  0  0  0  0  0  0  0  0
   19.9199   17.1198   22.5297 C   0  0  0  0  0  0  0  0  0  0  0  0
   20.6131   16.7862   21.7451 H   0  0  0  0  0  0  0  0  0  0  0  0
   19.4825   16.2087   22.9609 H   0  0  0  0  0  0  0  0  0  0  0  0
   18.7819   17.9582   21.8950 C   0  0  0  0  0  0  0  0  0  0  0  0
   18.0314   18.2128   22.6558 H   0  0  0  0  0  0  0  0  0  0  0  0
   18.2644   17.3167   21.1687 H   0  0  0  0  0  0  0  0  0  0  0  0
   19.2555   19.2366   21.1580 C   0  0  0  0  0  0  0  0  0  0  0  0
   20.2796   19.0995   20.7845 H   0  0  0  0  0  0  0  0  0  0  0  0
   18.6237   19.3811   20.2710 H   0  0  0  0  0  0  0  0  0  0  0  0
   19.1648   20.5134   22.0254 C   0  0  0  0  0  0  0  0  0  0  0  0
   19.7592   20.4022   22.9401 H   0  0  0  0  0  0  0  0  0  0  0  0
   18.1246   20.6683   22.3435 H   0  0  0  0  0  0  0  0  0  0  0  0
   19.6511   21.7566   21.2538 C   0  0  0  0  0  0  0  0  0  0  0  0
   20.7002   21.6442   20.9502 H   0  0  0  0  0  0  0  0  0  0  0  0
   19.5739   22.6551   21.8797 H   0  0  0  0  0  0  0  0  0  0  0  0
   19.0482   21.9197   20.3509 H   0  0  0  0  0  0  0  0  0  0  0  0
  1  2  1  0  0  0  0
  1  3  2  0  0  0  0
  1  4  1  0  0  0  0
  4  5  1  0  0  0  0
  4  6  1  0  0  0  0
  4  7  1  0  0  0  0
  7  8  1  0  0  0  0
  7  9  1  0  0  0  0
  7 10  1  0  0  0  0
 10 11  1  0  0  0  0
 10 12  1  0  0  0  0
 10 13  1  0  0  0  0
 13 14  1  0  0  0  0
 13 15  1  0  0  0  0
 13 16  1  0  0  0  0
 16 17  1  0  0  0  0
 16 18  1  0  0  0  0
 16 19  1  0  0  0  0
 19 20  1  0  0  0  0
 19 21  1  0  0  0  0
 19 22  1  0  0  0  0
M  END
> <VConfSearch Rank>
473

> <Conf_Id>
6

> <Delta U+W>
2.118

> <U+W>
-51.042

> <U>
10.045

> <W>
-61.086

> <W(PB)>
-63.356

> <W(SA)>
2.270

> <Valence>
10.100

> <Coulomb>
-0.883

> <VdW>
0.828

> <VdW6>
-8.177

> <VdW12>
9.004

> <Bond>
0.182

> <Angle>
2.988

> <Pdih>
6.930

> <Idih>
0.001

> <Tether>
0.000

$$$$
VeraChem MOL file


 22 21  0  0  0  0  0  0  0  0999 V2000     
   22.2998   19.2861   22.1932 C   0  0  0  0  0  0  0  0  0  0  0  0
   22.5881   20.3918   22.6078 O   0  5  0  0  0  0  0  0  0  0  0  0
   22.2880   18.9947   21.0134 O   0  0  0  0  0  0  0  0  0  0  0  0
   22.0053   18.1845   23.2098 C   0  0  0  0  0  0  0  0  0  0  0  0
   22.9281   18.0401   23.7834 H   0  0  0  0  0  0  0  0  0  0  0  0
   21.8186   17.2458   22.6744 H   0  0  0  0  0  0  0  0  0  0  0  0
   20.8398   18.4840   24.1942 C   0  0  0  0  0  0  0  0  0  0  0  0
   20.9599   17.8319   25.0698 H   0  0  0  0  0  0  0  0  0  0  0  0
   20.9223   19.5131   24.5705 H   0  0  0  0  0  0  0  0  0  0  0  0
   19.4233   18.2415   23.6166 C   0  0  0  0  0  0  0  0  0  0  0  0
   18.6991   18.3331   24.4377 H   0  0  0  0  0  0  0  0  0  0  0  0
   19.3453   17.2089   23.2500 H   0  0  0  0  0  0  0  0  0  0  0  0
   19.0247   19.2235   22.4917 C   0  0  0  0  0  0  0  0  0  0  0  0
   19.2005   20.2560   22.8236 H   0  0  0  0  0  0  0  0  0  0  0  0
   19.6566   19.0573   21.6101 H   0  0  0  0  0  0  0  0  0  0  0  0
   17.5452   19.0557   22.0856 C   0  0  0  0  0  0  0  0  0  0  0  0
   16.8989   19.2281   22.9573 H   0  0  0  0  0  0  0  0  0  0  0  0
   17.3674   18.0229   21.7550 H   0  0  0  0  0  0  0  0  0  0  0  0
   17.1522   20.0299   20.9570 C   0  0  0  0  0  0  0  0  0  0  0  0
   17.2910   21.0723   21.2723 H   0  0  0  0  0  0  0  0  0  0  0  0
   16.0984   19.8966   20.6799 H   0  0  0  0  0  0  0  0  0  0  0  0
   17.7630   19.8589   20.0607 H   0  0  0  0  0  0  0  0  0  0  0  0
  1  2  1  0  0  0  0
  1  3  2  0  0  0  0
  1  4  1  0  0  0  0
  4  5  1  0  0  0  0
  4  6  1  0  0  0  0
  4  7  1  0  0  0  0
  7  8  1  0  0  0  0
  7  9  1  0  0  0  0
  7 10  1  0  0  0  0
 10 11  1  0  0  0  0
 10 12  1  0  0  0  0
 10 13  1  0  0  0  0
 13 14  1  0  0  0  0
 13 15  1  0  0  0  0
 13 16  1  0  0  0  0
 16 17  1  0  0  0  0
 16 18  1  0  0  0  0
 16 19  1  0  0  0  0
 19 20  1  0  0  0  0
 19 21  1  0  0  0  0
 19 22  1  0  0  0  0
M  END
> <VConfSearch Rank>
474

> <Conf_Id>
8

> <Delta U+W>
1.886

> <U+W>
-51.274

> <U>
11.237

> <W>
-62.510

> <W(PB)>
-64.777

> <W(SA)>
2.267

> <Valence>
9.029

> <Coulomb>
1.667

> <VdW>
0.540

> <VdW6>
-8.825

> <VdW12>
9.365

> <Bond>
0.186

> <Angle>
3.195

> <Pdih>
5.642

> <Idih>
0.007

> <Tether>
0.000

$$$$
VeraChem MOL file


 22 21  0  0  0  0  0  0  0  0999 V2000     
   18.2061   19.6028   25.0860 C   0  0  0  0  0  0  0  0  0  0  0  0
   17.4253   20.2963   24.4646 O   0  5  0  0  0  0  0  0  0  0  0  0
   18.7379   19.9518   26.1217 O   0  0  0  0  0  0  0  0  0  0  0  0
   18.5143   18.2056   24.5548 C   0  0  0  0  0  0  0  0  0  0  0  0
   17.7653   17.9437   23.7991 H   0  0  0  0  0  0  0  0  0  0  0  0
   18.3738   17.5037   25.3851 H   0  0  0  0  0  0  0  0  0  0  0  0
   19.9505   18.0446   23.9851 C   0  0  0  0  0  0  0  0  0  0  0  0
   20.6712   18.2376   24.7917 H   0  0  0  0  0  0  0  0  0  0  0  0
   20.1026   17.0003   23.6808 H   0  0  0  0  0  0  0  0  0  0  0  0
   20.2793   18.9760   22.7922 C   0  0  0  0  0  0  0  0  0  0  0  0
   21.3388   18.8418   22.5403 H   0  0  0  0  0  0  0  0  0  0  0  0
   20.1641   20.0250   23.0979 H   0  0  0  0  0  0  0  0  0  0  0  0
   19.4121   18.7022   21.5391 C   0  0  0  0  0  0  0  0  0  0  0  0
   19.5093   17.6492   21.2420 H   0  0  0  0  0  0  0  0  0  0  0  0
   18.3551   18.8619   21.7881 H   0  0  0  0  0  0  0  0  0  0  0  0
   19.7615   19.6134   20.3393 C   0  0  0  0  0  0  0  0  0  0  0  0
   19.6800   20.6676   20.6385 H   0  0  0  0  0  0  0  0  0  0  0  0
   19.0134   19.4567   19.5500 H   0  0  0  0  0  0  0  0  0  0  0  0
   21.1641   19.3451   19.7515 C   0  0  0  0  0  0  0  0  0  0  0  0
   21.9555   19.6048   20.4653 H   0  0  0  0  0  0  0  0  0  0  0  0
   21.3225   19.9476   18.8477 H   0  0  0  0  0  0  0  0  0  0  0  0
   21.2797   18.2884   19.4774 H   0  0  0  0  0  0  0  0  0  0  0  0
  1  2  1  0  0  0  0
  1  3  2  0  0  0  0
  1  4  1  0  0  0  0
  4  5  1  0  0  0  0
  4  6  1  0  0  0  0
  4  7  1  0  0  0  0
  7  8  1  0  0  0  0
  7  9  1  0  0  0  0
  7 10  1  0  0  0  0
 10 11  1  0  0  0  0
 10 12  1  0  0  0  0
 10 13  1  0  0  0  0
 13 14  1  0  0  0  0
 13 15  1  0  0  0  0
 13 16  1  0  0  0  0
 16 17  1  0  0  0  0
 16 18  1  0  0  0  0
 16 19  1  0  0  0  0
 19 20  1  0  0  0  0
 19 21  1  0  0  0  0
 19 22  1  0  0  0  0
M  END
> <VConfSearch Rank>
475

> <Conf_Id>
93

> <Delta U+W>
1.836

> <U+W>
-51.323

> <U>
10.427

> <W>
-61.751

> <W(PB)>
-63.980

> <W(SA)>
2.230

> <Valence>
8.446

> <Coulomb>
1.306

> <VdW>
0.676

> <VdW6>
-8.928

> <VdW12>
9.604

> <Bond>
0.209

> <Angle>
3.066

> <Pdih>
5.170

> <Idih>
0.001

> <Tether>
0.000

$$$$
VeraChem MOL file


 22 21  0  0  0  0  0  0  0  0999 V2000     
   18.5656   19.5920   19.6178 C   0  0  0  0  0  0  0  0  0  0  0  0
   19.1217   19.3040   18.5761 O   0  5  0  0  0  0  0  0  0  0  0  0
   18.2790   20.7297   19.9343 O   0  0  0  0  0  0  0  0  0  0  0  0
   18.1803   18.4585   20.5644 C   0  0  0  0  0  0  0  0  0  0  0  0
   17.6495   17.7052   19.9707 H   0  0  0  0  0  0  0  0  0  0  0  0
   17.4584   18.8406   21.2948 H   0  0  0  0  0  0  0  0  0  0  0  0
   19.3863   17.7904   21.2802 C   0  0  0  0  0  0  0  0  0  0  0  0
   19.0237   16.9540   21.8928 H   0  0  0  0  0  0  0  0  0  0  0  0
   20.0457   17.3505   20.5193 H   0  0  0  0  0  0  0  0  0  0  0  0
   20.2209   18.7474   22.1670 C   0  0  0  0  0  0  0  0  0  0  0  0
   20.6177   19.5688   21.5549 H   0  0  0  0  0  0  0  0  0  0  0  0
   21.0903   18.1913   22.5397 H   0  0  0  0  0  0  0  0  0  0  0  0
   19.4277   19.3278   23.3634 C   0  0  0  0  0  0  0  0  0  0  0  0
   18.5733   19.9045   22.9861 H   0  0  0  0  0  0  0  0  0  0  0  0
   19.0125   18.5094   23.9670 H   0  0  0  0  0  0  0  0  0  0  0  0
   20.2706   20.2602   24.2646 C   0  0  0  0  0  0  0  0  0  0  0  0
   19.6041   20.7383   24.9956 H   0  0  0  0  0  0  0  0  0  0  0  0
   20.7000   21.0711   23.6601 H   0  0  0  0  0  0  0  0  0  0  0  0
   21.3954   19.5264   25.0269 C   0  0  0  0  0  0  0  0  0  0  0  0
   22.1560   19.1337   24.3409 H   0  0  0  0  0  0  0  0  0  0  0  0
   20.9924   18.6890   25.6113 H   0  0  0  0  0  0  0  0  0  0  0  0
   21.8981   20.2118   25.7214 H   0  0  0  0  0  0  0  0  0  0  0  0
  1  2  1  0  0  0  0
  1  3  2  0  0  0  0
  1  4  1  0  0  0  0
  4  5  1  0  0  0  0
  4  6  1  0  0  0  0
  4  7  1  0  0  0  0
  7  8  1  0  0  0  0
  7  9  1  0  0  0  0
  7 10  1  0  0  0  0
 10 11  1  0  0  0  0
 10 12  1  0  0  0  0
 10 13  1  0  0  0  0
 13 14  1  0  0  0  0
 13 15  1  0  0  0  0
 13 16  1  0  0  0  0
 16 17  1  0  0  0  0
 16 18  1  0  0  0  0
 16 19  1  0  0  0  0
 19 20  1  0  0  0  0
 19 21  1  0  0  0  0
 19 22  1  0  0  0  0
M  END
> <VConfSearch Rank>
476

> <Conf_Id>
70

> <Delta U+W>
1.803

> <U+W>
-51.356

> <U>
10.428

> <W>
-61.784

> <W(PB)>
-64.014

> <W(SA)>
2.230

> <Valence>
8.445

> <Coulomb>
1.306

> <VdW>
0.676

> <VdW6>
-8.929

> <VdW12>
9.605

> <Bond>
0.209

> <Angle>
3.066

> <Pdih>
5.170

> <Idih>
0.001

> <Tether>
0.000

$$$$
VeraChem MOL file


 22 21  0  0  0  0  0  0  0  0999 V2000     
   20.8998   21.0767   24.7094 C   0  0  0  0  0  0  0  0  0  0  0  0
   19.9837   21.1908   25.4998 O   0  5  0  0  0  0  0  0  0  0  0  0
   21.4269   22.0184   24.1506 O   0  0  0  0  0  0  0  0  0  0  0  0
   21.4296   19.6750   24.4201 C   0  0  0  0  0  0  0  0  0  0  0  0
   21.5313   19.1576   25.3814 H   0  0  0  0  0  0  0  0  0  0  0  0
   22.4382   19.7621   23.9984 H   0  0  0  0  0  0  0  0  0  0  0  0
   20.5237   18.8418   23.4767 C   0  0  0  0  0  0  0  0  0  0  0  0
   20.9078   17.8140   23.4292 H   0  0  0  0  0  0  0  0  0  0  0  0
   19.5163   18.7851   23.9099 H   0  0  0  0  0  0  0  0  0  0  0  0
   20.4590   19.4297   22.0468 C   0  0  0  0  0  0  0  0  0  0  0  0
   21.4819   19.5590   21.6675 H   0  0  0  0  0  0  0  0  0  0  0  0
   20.0110   20.4326   22.0754 H   0  0  0  0  0  0  0  0  0  0  0  0
   19.6743   18.5430   21.0510 C   0  0  0  0  0  0  0  0  0  0  0  0
   19.7837   18.9695   20.0445 H   0  0  0  0  0  0  0  0  0  0  0  0
   20.1253   17.5419   21.0147 H   0  0  0  0  0  0  0  0  0  0  0  0
   18.1701   18.4253   21.3850 C   0  0  0  0  0  0  0  0  0  0  0  0
   17.7307   19.4285   21.4735 H   0  0  0  0  0  0  0  0  0  0  0  0
   18.0356   17.9298   22.3554 H   0  0  0  0  0  0  0  0  0  0  0  0
   17.4118   17.6273   20.3051 C   0  0  0  0  0  0  0  0  0  0  0  0
   17.4927   18.1163   19.3254 H   0  0  0  0  0  0  0  0  0  0  0  0
   16.3465   17.5500   20.5581 H   0  0  0  0  0  0  0  0  0  0  0  0
   17.8136   16.6096   20.2148 H   0  0  0  0  0  0  0  0  0  0  0  0
  1  2  1  0  0  0  0
  1  3  2  0  0  0  0
  1  4  1  0  0  0  0
  4  5  1  0  0  0  0
  4  6  1  0  0  0  0
  4  7  1  0  0  0  0
  7  8  1  0  0  0  0
  7  9  1  0  0  0  0
  7 10  1  0  0  0  0
 10 11  1  0  0  0  0
 10 12  1  0  0  0  0
 10 13  1  0  0  0  0
 13 14  1  0  0  0  0
 13 15  1  0  0  0  0
 13 16  1  0  0  0  0
 16 17  1  0  0  0  0
 16 18  1  0  0  0  0
 16 19  1  0  0  0  0
 19 20  1  0  0  0  0
 19 21  1  0  0  0  0
 19 22  1  0  0  0  0
M  END
> <VConfSearch Rank>
477

> <Conf_Id>
85

> <Delta U+W>
0.707

> <U+W>
-52.452

> <U>
8.925

> <W>
-61.378

> <W(PB)>
-63.661

> <W(SA)>
2.283

> <Valence>
7.881

> <Coulomb>
0.349

> <VdW>
0.695

> <VdW6>
-8.049

> <VdW12>
8.743

> <Bond>
0.156

> <Angle>
2.660

> <Pdih>
5.064

> <Idih>
0.001

> <Tether>
0.000

$$$$
VeraChem MOL file


 22 21  0  0  0  0  0  0  0  0999 V2000     
   17.0830   20.6122   23.0098 C   0  0  0  0  0  0  0  0  0  0  0  0
   16.0984   19.9030   23.0773 O   0  5  0  0  0  0  0  0  0  0  0  0
   17.3476   21.4741   23.8247 O   0  0  0  0  0  0  0  0  0  0  0  0
   18.0278   20.4276   21.8254 C   0  0  0  0  0  0  0  0  0  0  0  0
   18.2550   21.4248   21.4304 H   0  0  0  0  0  0  0  0  0  0  0  0
   17.4963   19.8860   21.0336 H   0  0  0  0  0  0  0  0  0  0  0  0
   19.3502   19.6980   22.1784 C   0  0  0  0  0  0  0  0  0  0  0  0
   20.0186   19.7551   21.3102 H   0  0  0  0  0  0  0  0  0  0  0  0
   19.8484   20.2244   23.0043 H   0  0  0  0  0  0  0  0  0  0  0  0
   19.1291   18.2150   22.5566 C   0  0  0  0  0  0  0  0  0  0  0  0
   18.7097   17.6775   21.6953 H   0  0  0  0  0  0  0  0  0  0  0  0
   18.3744   18.1544   23.3527 H   0  0  0  0  0  0  0  0  0  0  0  0
   20.4054   17.4864   23.0471 C   0  0  0  0  0  0  0  0  0  0  0  0
   20.7810   17.9610   23.9640 H   0  0  0  0  0  0  0  0  0  0  0  0
   20.1127   16.4680   23.3371 H   0  0  0  0  0  0  0  0  0  0  0  0
   21.5375   17.3807   21.9949 C   0  0  0  0  0  0  0  0  0  0  0  0
   21.1166   17.3872   20.9800 H   0  0  0  0  0  0  0  0  0  0  0  0
   22.0362   16.4087   22.1122 H   0  0  0  0  0  0  0  0  0  0  0  0
   22.6075   18.4859   22.1386 C   0  0  0  0  0  0  0  0  0  0  0  0
   22.1794   19.4873   22.0170 H   0  0  0  0  0  0  0  0  0  0  0  0
   23.3914   18.3622   21.3803 H   0  0  0  0  0  0  0  0  0  0  0  0
   23.0855   18.4400   23.1258 H   0  0  0  0  0  0  0  0  0  0  0  0
  1  2  1  0  0  0  0
  1  3  2  0  0  0  0
  1  4  1  0  0  0  0
  4  5  1  0  0  0  0
  4  6  1  0  0  0  0
  4  7  1  0  0  0  0
  7  8  1  0  0  0  0
  7  9  1  0  0  0  0
  7 10  1  0  0  0  0
 10 11  1  0  0  0  0
 10 12  1  0  0  0  0
 10 13  1  0  0  0  0
 13 14  1  0  0  0  0
 13 15  1  0  0  0  0
 13 16  1  0  0  0  0
 16 17  1  0  0  0  0
 16 18  1  0  0  0  0
 16 19  1  0  0  0  0
 19 20  1  0  0  0  0
 19 21  1  0  0  0  0
 19 22  1  0  0  0  0
M  END
> <VConfSearch Rank>
478

> <Conf_Id>
82

> <Delta U+W>
3.438

> <U+W>
-49.721

> <U>
11.773

> <W>
-61.495

> <W(PB)>
-63.749

> <W(SA)>
2.254

> <Valence>
10.419

> <Coulomb>
0.565

> <VdW>
0.789

> <VdW6>
-8.847

> <VdW12>
9.636

> <Bond>
0.200

> <Angle>
3.187

> <Pdih>
7.032

> <Idih>
0.001

> <Tether>
0.000

$$$$
VeraChem MOL file


 22 21  0  0  0  0  0  0  0  0999 V2000     
   22.2863   16.9284   21.0923 C   0  0  0  0  0  0  0  0  0  0  0  0
   21.7657   15.8841   20.7527 O   0  5  0  0  0  0  0  0  0  0  0  0
   23.0781   17.5402   20.4024 O   0  0  0  0  0  0  0  0  0  0  0  0
   21.9435   17.4884   22.4701 C   0  0  0  0  0  0  0  0  0  0  0  0
   22.7201   18.2065   22.7602 H   0  0  0  0  0  0  0  0  0  0  0  0
   21.9975   16.6573   23.1831 H   0  0  0  0  0  0  0  0  0  0  0  0
   20.5436   18.1509   22.5536 C   0  0  0  0  0  0  0  0  0  0  0  0
   19.7806   17.4361   22.2156 H   0  0  0  0  0  0  0  0  0  0  0  0
   20.3303   18.3760   23.6061 H   0  0  0  0  0  0  0  0  0  0  0  0
   20.4504   19.4521   21.7235 C   0  0  0  0  0  0  0  0  0  0  0  0
   20.7722   19.2467   20.6934 H   0  0  0  0  0  0  0  0  0  0  0  0
   21.1574   20.1915   22.1237 H   0  0  0  0  0  0  0  0  0  0  0  0
   19.0316   20.0723   21.6697 C   0  0  0  0  0  0  0  0  0  0  0  0
   19.0804   20.9504   21.0113 H   0  0  0  0  0  0  0  0  0  0  0  0
   18.3342   19.3752   21.1853 H   0  0  0  0  0  0  0  0  0  0  0  0
   18.4700   20.5282   23.0395 C   0  0  0  0  0  0  0  0  0  0  0  0
   17.8899   21.4497   22.8920 H   0  0  0  0  0  0  0  0  0  0  0  0
   19.2915   20.7905   23.7203 H   0  0  0  0  0  0  0  0  0  0  0  0
   17.5428   19.4814   23.6965 C   0  0  0  0  0  0  0  0  0  0  0  0
   16.6790   19.2676   23.0538 H   0  0  0  0  0  0  0  0  0  0  0  0
   17.1627   19.8540   24.6564 H   0  0  0  0  0  0  0  0  0  0  0  0
   18.0640   18.5364   23.8870 H   0  0  0  0  0  0  0  0  0  0  0  0
  1  2  1  0  0  0  0
  1  3  2  0  0  0  0
  1  4  1  0  0  0  0
  4  5  1  0  0  0  0
  4  6  1  0  0  0  0
  4  7  1  0  0  0  0
  7  8  1  0  0  0  0
  7  9  1  0  0  0  0
  7 10  1  0  0  0  0
 10 11  1  0  0  0  0
 10 12  1  0  0  0  0
 10 13  1  0  0  0  0
 13 14  1  0  0  0  0
 13 15  1  0  0  0  0
 13 16  1  0  0  0  0
 16 17  1  0  0  0  0
 16 18  1  0  0  0  0
 16 19  1  0  0  0  0
 19 20  1  0  0  0  0
 19 21  1  0  0  0  0
 19 22  1  0  0  0  0
M  END
> <VConfSearch Rank>
479

> <Conf_Id>
94

> <Delta U+W>
3.471

> <U+W>
-49.688

> <U>
11.773

> <W>
-61.461

> <W(PB)>
-63.710

> <W(SA)>
2.248

> <Valence>
10.419

> <Coulomb>
0.566

> <VdW>
0.789

> <VdW6>
-8.847

> <VdW12>
9.636

> <Bond>
0.200

> <Angle>
3.187

> <Pdih>
7.032

> <Idih>
0.001

> <Tether>
0.000

$$$$
VeraChem MOL file


 22 21  0  0  0  0  0  0  0  0999 V2000     
   20.2425   15.9550   23.4088 C   0  0  0  0  0  0  0  0  0  0  0  0
   19.6690   15.2907   24.2494 O   0  5  0  0  0  0  0  0  0  0  0  0
   21.4073   15.7929   23.1031 O   0  0  0  0  0  0  0  0  0  0  0  0
   19.4627   17.0654   22.7139 C   0  0  0  0  0  0  0  0  0  0  0  0
   18.4156   16.7495   22.6358 H   0  0  0  0  0  0  0  0  0  0  0  0
   19.8520   17.1584   21.6937 H   0  0  0  0  0  0  0  0  0  0  0  0
   19.5580   18.4222   23.4584 C   0  0  0  0  0  0  0  0  0  0  0  0
   19.2386   18.2768   24.4995 H   0  0  0  0  0  0  0  0  0  0  0  0
   20.6071   18.7432   23.5047 H   0  0  0  0  0  0  0  0  0  0  0  0
   18.6874   19.5369   22.8258 C   0  0  0  0  0  0  0  0  0  0  0  0
   18.7701   20.4434   23.4397 H   0  0  0  0  0  0  0  0  0  0  0  0
   17.6323   19.2364   22.8805 H   0  0  0  0  0  0  0  0  0  0  0  0
   19.0272   19.8839   21.3522 C   0  0  0  0  0  0  0  0  0  0  0  0
   18.7884   19.0246   20.7120 H   0  0  0  0  0  0  0  0  0  0  0  0
   18.3626   20.6935   21.0214 H   0  0  0  0  0  0  0  0  0  0  0  0
   20.4945   20.3077   21.0965 C   0  0  0  0  0  0  0  0  0  0  0  0
   20.6210   20.5011   20.0225 H   0  0  0  0  0  0  0  0  0  0  0  0
   21.1748   19.4802   21.3383 H   0  0  0  0  0  0  0  0  0  0  0  0
   20.9101   21.5707   21.8812 C   0  0  0  0  0  0  0  0  0  0  0  0
   20.2324   22.4071   21.6666 H   0  0  0  0  0  0  0  0  0  0  0  0
   21.9265   21.8783   21.6038 H   0  0  0  0  0  0  0  0  0  0  0  0
   20.9009   21.3885   22.9632 H   0  0  0  0  0  0  0  0  0  0  0  0
  1  2  1  0  0  0  0
  1  3  2  0  0  0  0
  1  4  1  0  0  0  0
  4  5  1  0  0  0  0
  4  6  1  0  0  0  0
  4  7  1  0  0  0  0
  7  8  1  0  0  0  0
  7  9  1  0  0  0  0
  7 10  1  0  0  0  0
 10 11  1  0  0  0  0
 10 12  1  0  0  0  0
 10 13  1  0  0  0  0
 13 14  1  0  0  0  0
 13 15  1  0  0  0  0
 13 16  1  0  0  0  0
 16 17  1  0  0  0  0
 16 18  1  0  0  0  0
 16 19  1  0  0  0  0
 19 20  1  0  0  0  0
 19 21  1  0  0  0  0
 19 22  1  0  0  0  0
M  END
> <VConfSearch Rank>
480

> <Conf_Id>
56

> <Delta U+W>
0.853

> <U+W>
-52.307

> <U>
8.874

> <W>
-61.181

> <W(PB)>
-63.413

> <W(SA)>
2.232

> <Valence>
8.479

> <Coulomb>
-0.357

> <VdW>
0.753

> <VdW6>
-9.081

> <VdW12>
9.833

> <Bond>
0.221

> <Angle>
3.208

> <Pdih>
5.050

> <Idih>
0.000

> <Tether>
0.000

$$$$
VeraChem MOL file


 22 21  0  0  0  0  0  0  0  0999 V2000     
   23.6158   19.8669   23.2614 C   0  0  0  0  0  0  0  0  0  0  0  0
   24.0208   18.7412   23.0446 O   0  5  0  0  0  0  0  0  0  0  0  0
   24.3299   20.7622   23.6669 O   0  0  0  0  0  0  0  0  0  0  0  0
   22.1429   20.2029   23.0222 C   0  0  0  0  0  0  0  0  0  0  0  0
   22.1088   21.0330   22.3070 H   0  0  0  0  0  0  0  0  0  0  0  0
   21.7351   20.5775   23.9684 H   0  0  0  0  0  0  0  0  0  0  0  0
   21.2710   19.0282   22.5041 C   0  0  0  0  0  0  0  0  0  0  0  0
   21.6886   18.6535   21.5592 H   0  0  0  0  0  0  0  0  0  0  0  0
   21.3144   18.1976   23.2223 H   0  0  0  0  0  0  0  0  0  0  0  0
   19.8022   19.4539   22.2903 C   0  0  0  0  0  0  0  0  0  0  0  0
   19.7614   20.2843   21.5720 H   0  0  0  0  0  0  0  0  0  0  0  0
   19.3870   19.8282   23.2362 H   0  0  0  0  0  0  0  0  0  0  0  0
   18.9368   18.2839   21.7750 C   0  0  0  0  0  0  0  0  0  0  0  0
   19.3516   17.9092   20.8292 H   0  0  0  0  0  0  0  0  0  0  0  0
   18.9772   17.4533   22.4931 H   0  0  0  0  0  0  0  0  0  0  0  0
   17.4688   18.7087   21.5611 C   0  0  0  0  0  0  0  0  0  0  0  0
   17.4241   19.5382   20.8418 H   0  0  0  0  0  0  0  0  0  0  0  0
   17.0497   19.0823   22.5057 H   0  0  0  0  0  0  0  0  0  0  0  0
   16.6079   17.5376   21.0466 C   0  0  0  0  0  0  0  0  0  0  0  0
   16.9864   17.1643   20.0860 H   0  0  0  0  0  0  0  0  0  0  0  0
   15.5679   17.8571   20.9001 H   0  0  0  0  0  0  0  0  0  0  0  0
   16.6091   16.7051   21.7624 H   0  0  0  0  0  0  0  0  0  0  0  0
  1  2  1  0  0  0  0
  1  3  2  0  0  0  0
  1  4  1  0  0  0  0
  4  5  1  0  0  0  0
  4  6  1  0  0  0  0
  4  7  1  0  0  0  0
  7  8  1  0  0  0  0
  7  9  1  0  0  0  0
  7 10  1  0  0  0  0
 10 11  1  0  0  0  0
 10 12  1  0  0  0  0
 10 13  1  0  0  0  0
 13 14  1  0  0  0  0
 13 15  1  0  0  0  0
 13 16  1  0  0  0  0
 16 17  1  0  0  0  0
 16 18  1  0  0  0  0
 16 19  1  0  0  0  0
 19 20  1  0  0  0  0
 19 21  1  0  0  0  0
 19 22  1  0  0  0  0
M  END
> <VConfSearch Rank>
481

> <Conf_Id>
0

> <Delta U+W>
0.000

> <U+W>
-53.159

> <U>
6.763

> <W>
-59.922

> <W(PB)>
-62.256

> <W(SA)>
2.334

> <Valence>
7.600

> <Coulomb>
-2.139

> <VdW>
1.302

> <VdW6>
-6.786

> <VdW12>
8.088

> <Bond>
0.134

> <Angle>
2.720

> <Pdih>
4.746

> <Idih>
0.000

> <Tether>
0.000

$$$$
VeraChem MOL file


 22 21  0  0  0  0  0  0  0  0999 V2000     
   17.2222   18.3144   19.1498 C   0  0  0  0  0  0  0  0  0  0  0  0
   16.3840   17.4668   19.3854 O   0  5  0  0  0  0  0  0  0  0  0  0
   17.6849   18.5144   18.0442 O   0  0  0  0  0  0  0  0  0  0  0  0
   17.7382   19.1586   20.3097 C   0  0  0  0  0  0  0  0  0  0  0  0
   16.9189   19.2891   21.0270 H   0  0  0  0  0  0  0  0  0  0  0  0
   17.9908   20.1527   19.9216 H   0  0  0  0  0  0  0  0  0  0  0  0
   18.9676   18.5303   21.0110 C   0  0  0  0  0  0  0  0  0  0  0  0
   18.7020   17.5306   21.3821 H   0  0  0  0  0  0  0  0  0  0  0  0
   19.7739   18.3942   20.2768 H   0  0  0  0  0  0  0  0  0  0  0  0
   19.4706   19.4034   22.1808 C   0  0  0  0  0  0  0  0  0  0  0  0
   18.6619   19.5385   22.9122 H   0  0  0  0  0  0  0  0  0  0  0  0
   19.7339   20.4023   21.8066 H   0  0  0  0  0  0  0  0  0  0  0  0
   20.6961   18.7746   22.8779 C   0  0  0  0  0  0  0  0  0  0  0  0
   20.4332   17.7757   23.2523 H   0  0  0  0  0  0  0  0  0  0  0  0
   21.5050   18.6393   22.1469 H   0  0  0  0  0  0  0  0  0  0  0  0
   21.1994   19.6466   24.0473 C   0  0  0  0  0  0  0  0  0  0  0  0
   20.3934   19.7825   24.7818 H   0  0  0  0  0  0  0  0  0  0  0  0
   21.4653   20.6462   23.6763 H   0  0  0  0  0  0  0  0  0  0  0  0
   22.4232   19.0153   24.7407 C   0  0  0  0  0  0  0  0  0  0  0  0
   23.2565   18.8968   24.0357 H   0  0  0  0  0  0  0  0  0  0  0  0
   22.1765   18.0265   25.1493 H   0  0  0  0  0  0  0  0  0  0  0  0
   22.7676   19.6480   25.5691 H   0  0  0  0  0  0  0  0  0  0  0  0
  1  2  1  0  0  0  0
  1  3  2  0  0  0  0
  1  4  1  0  0  0  0
  4  5  1  0  0  0  0
  4  6  1  0  0  0  0
  4  7  1  0  0  0  0
  7  8  1  0  0  0  0
  7  9  1  0  0  0  0
  7 10  1  0  0  0  0
 10 11  1  0  0  0  0
 10 12  1  0  0  0  0
 10 13  1  0  0  0  0
 13 14  1  0  0  0  0
 13 15  1  0  0  0  0
 13 16  1  0  0  0  0
 16 17  1  0  0  0  0
 16 18  1  0  0  0  0
 16 19  1  0  0  0  0
 19 20  1  0  0  0  0
 19 21  1  0  0  0  0
 19 22  1  0  0  0  0
M  END
> <VConfSearch Rank>
482

> <Conf_Id>
10

> <Delta U+W>
-1.291

> <U+W>
-54.451

> <U>
5.779

> <W>
-60.230

> <W(PB)>
-62.557

> <W(SA)>
2.328

> <Valence>
7.101

> <Coulomb>
-2.079

> <VdW>
0.757

> <VdW6>
-6.496

> <VdW12>
7.253

> <Bond>
0.100

> <Angle>
2.262

> <Pdih>
4.738

> <Idih>
0.001

> <Tether>
0.000

$$$$
VeraChem MOL file


 22 21  0  0  0  0  0  0  0  0999 V2000     
   18.1508   22.3116   21.3412 C   0  0  0  0  0  0  0  0  0  0  0  0
   17.2668   22.1858   20.5170 O   0  5  0  0  0  0  0  0  0  0  0  0
   18.1774   23.2004   22.1693 O   0  0  0  0  0  0  0  0  0  0  0  0
   19.2781   21.2853   21.3502 C   0  0  0  0  0  0  0  0  0  0  0  0
   20.1949   21.7890   21.6795 H   0  0  0  0  0  0  0  0  0  0  0  0
   19.4438   20.9521   20.3187 H   0  0  0  0  0  0  0  0  0  0  0  0
   18.9786   20.0704   22.2627 C   0  0  0  0  0  0  0  0  0  0  0  0
   18.8020   20.4224   23.2886 H   0  0  0  0  0  0  0  0  0  0  0  0
   18.0516   19.5847   21.9279 H   0  0  0  0  0  0  0  0  0  0  0  0
   20.1344   19.0465   22.2545 C   0  0  0  0  0  0  0  0  0  0  0  0
   21.0593   19.5342   22.5916 H   0  0  0  0  0  0  0  0  0  0  0  0
   20.3070   18.7071   21.2248 H   0  0  0  0  0  0  0  0  0  0  0  0
   19.8291   17.8341   23.1639 C   0  0  0  0  0  0  0  0  0  0  0  0
   19.5895   18.1957   24.1732 H   0  0  0  0  0  0  0  0  0  0  0  0
   18.9329   17.3139   22.7989 H   0  0  0  0  0  0  0  0  0  0  0  0
   21.0024   16.8321   23.2673 C   0  0  0  0  0  0  0  0  0  0  0  0
   20.7501   16.0702   24.0176 H   0  0  0  0  0  0  0  0  0  0  0  0
   21.8991   17.3476   23.6381 H   0  0  0  0  0  0  0  0  0  0  0  0
   21.3236   16.1269   21.9317 C   0  0  0  0  0  0  0  0  0  0  0  0
   22.1001   15.3648   22.0772 H   0  0  0  0  0  0  0  0  0  0  0  0
   21.6927   16.8377   21.1818 H   0  0  0  0  0  0  0  0  0  0  0  0
   20.4332   15.6291   21.5262 H   0  0  0  0  0  0  0  0  0  0  0  0
  1  2  1  0  0  0  0
  1  3  2  0  0  0  0
  1  4  1  0  0  0  0
  4  5  1  0  0  0  0
  4  6  1  0  0  0  0
  4  7  1  0  0  0  0
  7  8  1  0  0  0  0
  7  9  1  0  0  0  0
  7 10  1  0  0  0  0
 10 11  1  0  0  0  0
 10 12  1  0  0  0  0
 10 13  1  0  0  0  0
 13 14  1  0  0  0  0
 13 15  1  0  0  0  0
 13 16  1  0  0  0  0
 16 17  1  0  0  0  0
 16 18  1  0  0  0  0
 16 19  1  0  0  0  0
 19 20  1  0  0  0  0
 19 21  1  0  0  0  0
 19 22  1  0  0  0  0
M  END
> <VConfSearch Rank>
483

> <Conf_Id>
37

> <Delta U+W>
-0.345

> <U+W>
-53.504

> <U>
6.751

> <W>
-60.255

> <W(PB)>
-62.592

> <W(SA)>
2.336

> <Valence>
7.602

> <Coulomb>
-1.744

> <VdW>
0.894

> <VdW6>
-7.110

> <VdW12>
8.004

> <Bond>
0.131

> <Angle>
2.489

> <Pdih>
4.982

> <Idih>
0.001

> <Tether>
0.000

$$$$
VeraChem MOL file


 22 21  0  0  0  0  0  0  0  0999 V2000     
   17.6593   17.6177   25.1529 C   0  0  0  0  0  0  0  0  0  0  0  0
   16.6566   18.2741   25.3531 O   0  5  0  0  0  0  0  0  0  0  0  0
   18.2199   16.9663   26.0118 O   0  0  0  0  0  0  0  0  0  0  0  0
   18.2595   17.6292   23.7515 C   0  0  0  0  0  0  0  0  0  0  0  0
   17.4396   17.7321   23.0305 H   0  0  0  0  0  0  0  0  0  0  0  0
   18.7276   16.6536   23.5732 H   0  0  0  0  0  0  0  0  0  0  0  0
   19.2944   18.7634   23.5493 C   0  0  0  0  0  0  0  0  0  0  0  0
   18.8137   19.7323   23.7435 H   0  0  0  0  0  0  0  0  0  0  0  0
   20.1012   18.6537   24.2873 H   0  0  0  0  0  0  0  0  0  0  0  0
   19.8871   18.7534   22.1235 C   0  0  0  0  0  0  0  0  0  0  0  0
   19.0726   18.8561   21.3946 H   0  0  0  0  0  0  0  0  0  0  0  0
   20.3688   17.7846   21.9331 H   0  0  0  0  0  0  0  0  0  0  0  0
   20.9166   19.8897   21.9256 C   0  0  0  0  0  0  0  0  0  0  0  0
   20.4258   20.8625   22.0655 H   0  0  0  0  0  0  0  0  0  0  0  0
   21.6863   19.8145   22.7060 H   0  0  0  0  0  0  0  0  0  0  0  0
   21.6124   19.8554   20.5451 C   0  0  0  0  0  0  0  0  0  0  0  0
   22.1101   18.8859   20.4042 H   0  0  0  0  0  0  0  0  0  0  0  0
   22.4053   20.6159   20.5310 H   0  0  0  0  0  0  0  0  0  0  0  0
   20.6488   20.1205   19.3680 C   0  0  0  0  0  0  0  0  0  0  0  0
   20.1169   21.0714   19.5022 H   0  0  0  0  0  0  0  0  0  0  0  0
   19.9048   19.3200   19.2711 H   0  0  0  0  0  0  0  0  0  0  0  0
   21.2037   20.1742   18.4225 H   0  0  0  0  0  0  0  0  0  0  0  0
  1  2  1  0  0  0  0
  1  3  2  0  0  0  0
  1  4  1  0  0  0  0
  4  5  1  0  0  0  0
  4  6  1  0  0  0  0
  4  7  1  0  0  0  0
  7  8  1  0  0  0  0
  7  9  1  0  0  0  0
  7 10  1  0  0  0  0
 10 11  1  0  0  0  0
 10 12  1  0  0  0  0
 10 13  1  0  0  0  0
 13 14  1  0  0  0  0
 13 15  1  0  0  0  0
 13 16  1  0  0  0  0
 16 17  1  0  0  0  0
 16 18  1  0  0  0  0
 16 19  1  0  0  0  0
 19 20  1  0  0  0  0
 19 21  1  0  0  0  0
 19 22  1  0  0  0  0
M  END
> <VConfSearch Rank>
484

> <Conf_Id>
38

> <Delta U+W>
-0.439

> <U+W>
-53.598

> <U>
6.751

> <W>
-60.350

> <W(PB)>
-62.659

> <W(SA)>
2.309

> <Valence>
7.602

> <Coulomb>
-1.744

> <VdW>
0.893

> <VdW6>
-7.110

> <VdW12>
8.004

> <Bond>
0.131

> <Angle>
2.489

> <Pdih>
4.981

> <Idih>
0.001

> <Tether>
0.000

$$$$
VeraChem MOL file


 22 21  0  0  0  0  0  0  0  0999 V2000     
   21.9720   22.0613   21.5149 C   0  0  0  0  0  0  0  0  0  0  0  0
   21.5841   23.2006   21.6823 O   0  5  0  0  0  0  0  0  0  0  0  0
   22.8984   21.7663   20.7860 O   0  0  0  0  0  0  0  0  0  0  0  0
   21.2415   20.9379   22.2420 C   0  0  0  0  0  0  0  0  0  0  0  0
   20.8767   21.3324   23.1979 H   0  0  0  0  0  0  0  0  0  0  0  0
   21.9758   20.1575   22.4708 H   0  0  0  0  0  0  0  0  0  0  0  0
   20.0628   20.3574   21.4179 C   0  0  0  0  0  0  0  0  0  0  0  0
   19.3997   21.1830   21.1244 H   0  0  0  0  0  0  0  0  0  0  0  0
   20.4460   19.9213   20.4850 H   0  0  0  0  0  0  0  0  0  0  0  0
   19.2290   19.3029   22.1845 C   0  0  0  0  0  0  0  0  0  0  0  0
   18.3465   19.0621   21.5783 H   0  0  0  0  0  0  0  0  0  0  0  0
   18.8545   19.7395   23.1204 H   0  0  0  0  0  0  0  0  0  0  0  0
   20.0127   18.0029   22.4908 C   0  0  0  0  0  0  0  0  0  0  0  0
   20.3886   17.5675   21.5550 H   0  0  0  0  0  0  0  0  0  0  0  0
   20.8938   18.2419   23.0996 H   0  0  0  0  0  0  0  0  0  0  0  0
   19.1775   16.9477   23.2532 C   0  0  0  0  0  0  0  0  0  0  0  0
   18.7900   17.3830   24.1846 H   0  0  0  0  0  0  0  0  0  0  0  0
   19.8399   16.1224   23.5490 H   0  0  0  0  0  0  0  0  0  0  0  0
   18.0101   16.3713   22.4228 C   0  0  0  0  0  0  0  0  0  0  0  0
   17.2553   17.1370   22.2051 H   0  0  0  0  0  0  0  0  0  0  0  0
   17.5120   15.5619   22.9721 H   0  0  0  0  0  0  0  0  0  0  0  0
   18.3702   15.9611   21.4703 H   0  0  0  0  0  0  0  0  0  0  0  0
  1  2  1  0  0  0  0
  1  3  2  0  0  0  0
  1  4  1  0  0  0  0
  4  5  1  0  0  0  0
  4  6  1  0  0  0  0
  4  7  1  0  0  0  0
  7  8  1  0  0  0  0
  7  9  1  0  0  0  0
  7 10  1  0  0  0  0
 10 11  1  0  0  0  0
 10 12  1  0  0  0  0
 10 13  1  0  0  0  0
 13 14  1  0  0  0  0
 13 15  1  0  0  0  0
 13 16  1  0  0  0  0
 16 17  1  0  0  0  0
 16 18  1  0  0  0  0
 16 19  1  0  0  0  0
 19 20  1  0  0  0  0
 19 21  1  0  0  0  0
 19 22  1  0  0  0  0
M  END
> <VConfSearch Rank>
485

> <Conf_Id>
60

> <Delta U+W>
0.386

> <U+W>
-52.773

> <U>
7.689

> <W>
-60.463

> <W(PB)>
-62.772

> <W(SA)>
2.309

> <Valence>
8.197

> <Coulomb>
-1.561

> <VdW>
1.053

> <VdW6>
-7.737

> <VdW12>
8.790

> <Bond>
0.181

> <Angle>
2.780

> <Pdih>
5.235

> <Idih>
0.001

> <Tether>
0.000

$$$$
VeraChem MOL file


 22 21  0  0  0  0  0  0  0  0999 V2000     
   18.0699   15.7916   21.1568 C   0  0  0  0  0  0  0  0  0  0  0  0
   17.7933   15.8530   19.9751 O   0  5  0  0  0  0  0  0  0  0  0  0
   17.5420   15.0190   21.9320 O   0  0  0  0  0  0  0  0  0  0  0  0
   19.1210   16.7523   21.7014 C   0  0  0  0  0  0  0  0  0  0  0  0
   19.8575   16.9234   20.9086 H   0  0  0  0  0  0  0  0  0  0  0  0
   19.6415   16.2537   22.5278 H   0  0  0  0  0  0  0  0  0  0  0  0
   18.5131   18.0950   22.1844 C   0  0  0  0  0  0  0  0  0  0  0  0
   18.0368   18.6086   21.3378 H   0  0  0  0  0  0  0  0  0  0  0  0
   17.7125   17.8785   22.9053 H   0  0  0  0  0  0  0  0  0  0  0  0
   19.5414   19.0363   22.8561 C   0  0  0  0  0  0  0  0  0  0  0  0
   20.0214   18.5170   23.6967 H   0  0  0  0  0  0  0  0  0  0  0  0
   18.9943   19.8850   23.2859 H   0  0  0  0  0  0  0  0  0  0  0  0
   20.6228   19.5626   21.8806 C   0  0  0  0  0  0  0  0  0  0  0  0
   21.1727   18.7150   21.4525 H   0  0  0  0  0  0  0  0  0  0  0  0
   20.1425   20.0802   21.0391 H   0  0  0  0  0  0  0  0  0  0  0  0
   21.6476   20.5069   22.5514 C   0  0  0  0  0  0  0  0  0  0  0  0
   22.4498   20.7224   21.8322 H   0  0  0  0  0  0  0  0  0  0  0  0
   22.1220   19.9967   23.4011 H   0  0  0  0  0  0  0  0  0  0  0  0
   21.0344   21.8434   23.0232 C   0  0  0  0  0  0  0  0  0  0  0  0
   20.5243   22.3551   22.1968 H   0  0  0  0  0  0  0  0  0  0  0  0
   21.8182   22.5122   23.4019 H   0  0  0  0  0  0  0  0  0  0  0  0
   20.3106   21.6898   23.8330 H   0  0  0  0  0  0  0  0  0  0  0  0
  1  2  1  0  0  0  0
  1  3  2  0  0  0  0
  1  4  1  0  0  0  0
  4  5  1  0  0  0  0
  4  6  1  0  0  0  0
  4  7  1  0  0  0  0
  7  8  1  0  0  0  0
  7  9  1  0  0  0  0
  7 10  1  0  0  0  0
 10 11  1  0  0  0  0
 10 12  1  0  0  0  0
 10 13  1  0  0  0  0
 13 14  1  0  0  0  0
 13 15  1  0  0  0  0
 13 16  1  0  0  0  0
 16 17  1  0  0  0  0
 16 18  1  0  0  0  0
 16 19  1  0  0  0  0
 19 20  1  0  0  0  0
 19 21  1  0  0  0  0
 19 22  1  0  0  0  0
M  END
> <VConfSearch Rank>
486

> <Conf_Id>
28

> <Delta U+W>
0.351

> <U+W>
-52.808

> <U>
7.689

> <W>
-60.498

> <W(PB)>
-62.768

> <W(SA)>
2.270

> <Valence>
8.197

> <Coulomb>
-1.561

> <VdW>
1.053

> <VdW6>
-7.737

> <VdW12>
8.791

> <Bond>
0.181

> <Angle>
2.780

> <Pdih>
5.235

> <Idih>
0.001

> <Tether>
0.000

$$$$
VeraChem MOL file


 22 21  0  0  0  0  0  0  0  0999 V2000     
   22.6611   17.0366   20.5441 C   0  0  0  0  0  0  0  0  0  0  0  0
   23.7971   17.4045   20.7690 O   0  5  0  0  0  0  0  0  0  0  0  0
   22.3318   15.8687   20.4817 O   0  0  0  0  0  0  0  0  0  0  0  0
   21.5856   18.0994   20.3490 C   0  0  0  0  0  0  0  0  0  0  0  0
   20.8434   17.7076   19.6430 H   0  0  0  0  0  0  0  0  0  0  0  0
   22.0517   18.9731   19.8779 H   0  0  0  0  0  0  0  0  0  0  0  0
   20.8973   18.5092   21.6744 C   0  0  0  0  0  0  0  0  0  0  0  0
   20.4566   17.6158   22.1359 H   0  0  0  0  0  0  0  0  0  0  0  0
   21.6545   18.8908   22.3732 H   0  0  0  0  0  0  0  0  0  0  0  0
   19.8088   19.5836   21.4467 C   0  0  0  0  0  0  0  0  0  0  0  0
   19.0245   19.1835   20.7897 H   0  0  0  0  0  0  0  0  0  0  0  0
   20.2542   20.4360   20.9156 H   0  0  0  0  0  0  0  0  0  0  0  0
   19.1714   20.1025   22.7575 C   0  0  0  0  0  0  0  0  0  0  0  0
   19.9549   20.5064   23.4131 H   0  0  0  0  0  0  0  0  0  0  0  0
   18.5077   20.9430   22.5126 H   0  0  0  0  0  0  0  0  0  0  0  0
   18.3602   19.0279   23.5161 C   0  0  0  0  0  0  0  0  0  0  0  0
   19.0210   18.2129   23.8394 H   0  0  0  0  0  0  0  0  0  0  0  0
   17.6109   18.5863   22.8446 H   0  0  0  0  0  0  0  0  0  0  0  0
   17.6540   19.6206   24.7521 C   0  0  0  0  0  0  0  0  0  0  0  0
   16.9541   20.4151   24.4619 H   0  0  0  0  0  0  0  0  0  0  0  0
   18.3831   20.0453   25.4545 H   0  0  0  0  0  0  0  0  0  0  0  0
   17.0853   18.8451   25.2815 H   0  0  0  0  0  0  0  0  0  0  0  0
  1  2  1  0  0  0  0
  1  3  2  0  0  0  0
  1  4  1  0  0  0  0
  4  5  1  0  0  0  0
  4  6  1  0  0  0  0
  4  7  1  0  0  0  0
  7  8  1  0  0  0  0
  7  9  1  0  0  0  0
  7 10  1  0  0  0  0
 10 11  1  0  0  0  0
 10 12  1  0  0  0  0
 10 13  1  0  0  0  0
 13 14  1  0  0  0  0
 13 15  1  0  0  0  0
 13 16  1  0  0  0  0
 16 17  1  0  0  0  0
 16 18  1  0  0  0  0
 16 19  1  0  0  0  0
 19 20  1  0  0  0  0
 19 21  1  0  0  0  0
 19 22  1  0  0  0  0
M  END
> <VConfSearch Rank>
487

> <Conf_Id>
50

> <Delta U+W>
-0.486

> <U+W>
-53.646

> <U>
7.026

> <W>
-60.672

> <W(PB)>
-62.964

> <W(SA)>
2.292

> <Valence>
7.637

> <Coulomb>
-1.488

> <VdW>
0.877

> <VdW6>
-7.165

> <VdW12>
8.043

> <Bond>
0.134

> <Angle>
2.513

> <Pdih>
4.990

> <Idih>
0.001

> <Tether>
0.000

$$$$
VeraChem MOL file


 22 21  0  0  0  0  0  0  0  0999 V2000     
   19.5918   17.9052   18.6965 C   0  0  0  0  0  0  0  0  0  0  0  0
   18.5605   18.1284   18.0939 O   0  5  0  0  0  0  0  0  0  0  0  0
   20.2077   16.8611   18.6128 O   0  0  0  0  0  0  0  0  0  0  0  0
   20.1321   18.9875   19.6245 C   0  0  0  0  0  0  0  0  0  0  0  0
   19.8700   19.9633   19.1984 H   0  0  0  0  0  0  0  0  0  0  0  0
   21.2266   18.9184   19.6277 H   0  0  0  0  0  0  0  0  0  0  0  0
   19.5854   18.8696   21.0686 C   0  0  0  0  0  0  0  0  0  0  0  0
   18.4886   18.9315   21.0473 H   0  0  0  0  0  0  0  0  0  0  0  0
   19.8428   17.8786   21.4653 H   0  0  0  0  0  0  0  0  0  0  0  0
   20.1526   19.9756   21.9884 C   0  0  0  0  0  0  0  0  0  0  0  0
   19.9511   20.9555   21.5343 H   0  0  0  0  0  0  0  0  0  0  0  0
   21.2454   19.8812   22.0515 H   0  0  0  0  0  0  0  0  0  0  0  0
   19.5487   19.9626   23.4127 C   0  0  0  0  0  0  0  0  0  0  0  0
   19.9099   20.8490   23.9519 H   0  0  0  0  0  0  0  0  0  0  0  0
   18.4563   20.0610   23.3502 H   0  0  0  0  0  0  0  0  0  0  0  0
   19.9123   18.6991   24.2250 C   0  0  0  0  0  0  0  0  0  0  0  0
   21.0034   18.5713   24.2430 H   0  0  0  0  0  0  0  0  0  0  0  0
   19.4926   17.8060   23.7438 H   0  0  0  0  0  0  0  0  0  0  0  0
   19.3830   18.7849   25.6707 C   0  0  0  0  0  0  0  0  0  0  0  0
   18.2898   18.8858   25.6830 H   0  0  0  0  0  0  0  0  0  0  0  0
   19.8130   19.6475   26.1965 H   0  0  0  0  0  0  0  0  0  0  0  0
   19.6462   17.8798   26.2333 H   0  0  0  0  0  0  0  0  0  0  0  0
  1  2  1  0  0  0  0
  1  3  2  0  0  0  0
  1  4  1  0  0  0  0
  4  5  1  0  0  0  0
  4  6  1  0  0  0  0
  4  7  1  0  0  0  0
  7  8  1  0  0  0  0
  7  9  1  0  0  0  0
  7 10  1  0  0  0  0
 10 11  1  0  0  0  0
 10 12  1  0  0  0  0
 10 13  1  0  0  0  0
 13 14  1  0  0  0  0
 13 15  1  0  0  0  0
 13 16  1  0  0  0  0
 16 17  1  0  0  0  0
 16 18  1  0  0  0  0
 16 19  1  0  0  0  0
 19 20  1  0  0  0  0
 19 21  1  0  0  0  0
 19 22  1  0  0  0  0
M  END
> <VConfSearch Rank>
488

> <Conf_Id>
51

> <Delta U+W>
-0.517

> <U+W>
-53.677

> <U>
7.026

> <W>
-60.703

> <W(PB)>
-63.007

> <W(SA)>
2.304

> <Valence>
7.638

> <Coulomb>
-1.488

> <VdW>
0.877

> <VdW6>
-7.165

> <VdW12>
8.042

> <Bond>
0.134

> <Angle>
2.513

> <Pdih>
4.990

> <Idih>
0.001

> <Tether>
0.000

$$$$
VeraChem MOL file


 22 21  0  0  0  0  0  0  0  0999 V2000     
   20.5872   21.7468   24.1948 C   0  0  0  0  0  0  0  0  0  0  0  0
   19.7165   22.5858   24.0731 O   0  5  0  0  0  0  0  0  0  0  0  0
   20.8742   21.2244   25.2538 O   0  0  0  0  0  0  0  0  0  0  0  0
   21.3748   21.3426   22.9517 C   0  0  0  0  0  0  0  0  0  0  0  0
   22.3108   20.8673   23.2693 H   0  0  0  0  0  0  0  0  0  0  0  0
   21.6497   22.2634   22.4239 H   0  0  0  0  0  0  0  0  0  0  0  0
   20.5983   20.4063   21.9897 C   0  0  0  0  0  0  0  0  0  0  0  0
   19.6510   20.8839   21.7029 H   0  0  0  0  0  0  0  0  0  0  0  0
   21.1810   20.2806   21.0671 H   0  0  0  0  0  0  0  0  0  0  0  0
   20.3184   19.0184   22.6086 C   0  0  0  0  0  0  0  0  0  0  0  0
   19.7209   19.1347   23.5234 H   0  0  0  0  0  0  0  0  0  0  0  0
   21.2673   18.5510   22.9055 H   0  0  0  0  0  0  0  0  0  0  0  0
   19.5729   18.0929   21.6232 C   0  0  0  0  0  0  0  0  0  0  0  0
   18.6241   18.5610   21.3268 H   0  0  0  0  0  0  0  0  0  0  0  0
   20.1698   17.9727   20.7087 H   0  0  0  0  0  0  0  0  0  0  0  0
   19.2924   16.7069   22.2408 C   0  0  0  0  0  0  0  0  0  0  0  0
   18.6938   16.8231   23.1550 H   0  0  0  0  0  0  0  0  0  0  0  0
   20.2394   16.2348   22.5370 H   0  0  0  0  0  0  0  0  0  0  0  0
   18.5472   15.7857   21.2541 C   0  0  0  0  0  0  0  0  0  0  0  0
   17.5809   16.2194   20.9652 H   0  0  0  0  0  0  0  0  0  0  0  0
   18.3561   14.8052   21.7094 H   0  0  0  0  0  0  0  0  0  0  0  0
   19.1380   15.6267   20.3425 H   0  0  0  0  0  0  0  0  0  0  0  0
  1  2  1  0  0  0  0
  1  3  2  0  0  0  0
  1  4  1  0  0  0  0
  4  5  1  0  0  0  0
  4  6  1  0  0  0  0
  4  7  1  0  0  0  0
  7  8  1  0  0  0  0
  7  9  1  0  0  0  0
  7 10  1  0  0  0  0
 10 11  1  0  0  0  0
 10 12  1  0  0  0  0
 10 13  1  0  0  0  0
 13 14  1  0  0  0  0
 13 15  1  0  0  0  0
 13 16  1  0  0  0  0
 16 17  1  0  0  0  0
 16 18  1  0  0  0  0
 16 19  1  0  0  0  0
 19 20  1  0  0  0  0
 19 21  1  0  0  0  0
 19 22  1  0  0  0  0
M  END
> <VConfSearch Rank>
489

> <Conf_Id>
43

> <Delta U+W>
-0.129

> <U+W>
-53.289

> <U>
7.937

> <W>
-61.225

> <W(PB)>
-63.523

> <W(SA)>
2.297

> <Valence>
7.358

> <Coulomb>
-0.022

> <VdW>
0.601

> <VdW6>
-7.363

> <VdW12>
7.964

> <Bond>
0.121

> <Angle>
2.425

> <Pdih>
4.811

> <Idih>
0.000

> <Tether>
0.000

$$$$
VeraChem MOL file


 22 21  0  0  0  0  0  0  0  0999 V2000     
   22.1560   19.5525   19.9458 C   0  0  0  0  0  0  0  0  0  0  0  0
   22.6561   18.5139   19.5611 O   0  5  0  0  0  0  0  0  0  0  0  0
   22.7807   20.4338   20.5025 O   0  0  0  0  0  0  0  0  0  0  0  0
   20.6654   19.7675   19.6989 C   0  0  0  0  0  0  0  0  0  0  0  0
   20.4596   19.4774   18.6618 H   0  0  0  0  0  0  0  0  0  0  0  0
   20.4484   20.8396   19.7777 H   0  0  0  0  0  0  0  0  0  0  0  0
   19.7454   18.9632   20.6538 C   0  0  0  0  0  0  0  0  0  0  0  0
   18.7047   19.0684   20.3185 H   0  0  0  0  0  0  0  0  0  0  0  0
   19.9937   17.8950   20.5844 H   0  0  0  0  0  0  0  0  0  0  0  0
   19.8575   19.4322   22.1218 C   0  0  0  0  0  0  0  0  0  0  0  0
   19.6211   20.5034   22.1839 H   0  0  0  0  0  0  0  0  0  0  0  0
   20.8929   19.3140   22.4701 H   0  0  0  0  0  0  0  0  0  0  0  0
   18.9108   18.6400   23.0490 C   0  0  0  0  0  0  0  0  0  0  0  0
   17.8744   18.7590   22.7044 H   0  0  0  0  0  0  0  0  0  0  0  0
   19.1478   17.5690   22.9864 H   0  0  0  0  0  0  0  0  0  0  0  0
   19.0227   19.1073   24.5153 C   0  0  0  0  0  0  0  0  0  0  0  0
   18.7847   20.1780   24.5821 H   0  0  0  0  0  0  0  0  0  0  0  0
   20.0579   18.9880   24.8641 H   0  0  0  0  0  0  0  0  0  0  0  0
   18.0764   18.3135   25.4383 C   0  0  0  0  0  0  0  0  0  0  0  0
   17.0301   18.4405   25.1309 H   0  0  0  0  0  0  0  0  0  0  0  0
   18.1691   18.6585   26.4763 H   0  0  0  0  0  0  0  0  0  0  0  0
   18.3130   17.2416   25.4150 H   0  0  0  0  0  0  0  0  0  0  0  0
  1  2  1  0  0  0  0
  1  3  2  0  0  0  0
  1  4  1  0  0  0  0
  4  5  1  0  0  0  0
  4  6  1  0  0  0  0
  4  7  1  0  0  0  0
  7  8  1  0  0  0  0
  7  9  1  0  0  0  0
  7 10  1  0  0  0  0
 10 11  1  0  0  0  0
 10 12  1  0  0  0  0
 10 13  1  0  0  0  0
 13 14  1  0  0  0  0
 13 15  1  0  0  0  0
 13 16  1  0  0  0  0
 16 17  1  0  0  0  0
 16 18  1  0  0  0  0
 16 19  1  0  0  0  0
 19 20  1  0  0  0  0
 19 21  1  0  0  0  0
 19 22  1  0  0  0  0
M  END
> <VConfSearch Rank>
490

> <Conf_Id>
44

> <Delta U+W>
-0.155

> <U+W>
-53.314

> <U>
7.937

> <W>
-61.252

> <W(PB)>
-63.556

> <W(SA)>
2.304

> <Valence>
7.358

> <Coulomb>
-0.021

> <VdW>
0.600

> <VdW6>
-7.363

> <VdW12>
7.964

> <Bond>
0.121

> <Angle>
2.425

> <Pdih>
4.811

> <Idih>
0.001

> <Tether>
0.000

$$$$
VeraChem MOL file


 22 21  0  0  0  0  0  0  0  0999 V2000     
   22.0236   16.5677   23.4378 C   0  0  0  0  0  0  0  0  0  0  0  0
   22.9344   17.0641   24.0711 O   0  5  0  0  0  0  0  0  0  0  0  0
   22.1891   15.7791   22.5281 O   0  0  0  0  0  0  0  0  0  0  0  0
   20.5942   16.9419   23.8201 C   0  0  0  0  0  0  0  0  0  0  0  0
   20.5216   16.8822   24.9124 H   0  0  0  0  0  0  0  0  0  0  0  0
   19.9130   16.1838   23.4149 H   0  0  0  0  0  0  0  0  0  0  0  0
   20.1629   18.3554   23.3495 C   0  0  0  0  0  0  0  0  0  0  0  0
   19.1904   18.5900   23.8006 H   0  0  0  0  0  0  0  0  0  0  0  0
   20.8770   19.0990   23.7295 H   0  0  0  0  0  0  0  0  0  0  0  0
   20.0627   18.4635   21.8088 C   0  0  0  0  0  0  0  0  0  0  0  0
   19.3174   17.7484   21.4347 H   0  0  0  0  0  0  0  0  0  0  0  0
   21.0232   18.1697   21.3638 H   0  0  0  0  0  0  0  0  0  0  0  0
   19.7118   19.8861   21.3119 C   0  0  0  0  0  0  0  0  0  0  0  0
   20.4574   20.6008   21.6864 H   0  0  0  0  0  0  0  0  0  0  0  0
   19.7912   19.9006   20.2162 H   0  0  0  0  0  0  0  0  0  0  0  0
   18.2946   20.3502   21.7174 C   0  0  0  0  0  0  0  0  0  0  0  0
   18.2174   20.4209   22.8102 H   0  0  0  0  0  0  0  0  0  0  0  0
   17.5537   19.6078   21.3904 H   0  0  0  0  0  0  0  0  0  0  0  0
   17.9513   21.7216   21.1016 C   0  0  0  0  0  0  0  0  0  0  0  0
   18.6616   22.4899   21.4340 H   0  0  0  0  0  0  0  0  0  0  0  0
   16.9440   22.0388   21.4012 H   0  0  0  0  0  0  0  0  0  0  0  0
   17.9806   21.6787   20.0049 H   0  0  0  0  0  0  0  0  0  0  0  0
  1  2  1  0  0  0  0
  1  3  2  0  0  0  0
  1  4  1  0  0  0  0
  4  5  1  0  0  0  0
  4  6  1  0  0  0  0
  4  7  1  0  0  0  0
  7  8  1  0  0  0  0
  7  9  1  0  0  0  0
  7 10  1  0  0  0  0
 10 11  1  0  0  0  0
 10 12  1  0  0  0  0
 10 13  1  0  0  0  0
 13 14  1  0  0  0  0
 13 15  1  0  0  0  0
 13 16  1  0  0  0  0
 16 17  1  0  0  0  0
 16 18  1  0  0  0  0
 16 19  1  0  0  0  0
 19 20  1  0  0  0  0
 19 21  1  0  0  0  0
 19 22  1  0  0  0  0
M  END
> <VConfSearch Rank>
491

> <Conf_Id>
53

> <Delta U+W>
0.723

> <U+W>
-52.436

> <U>
8.587

> <W>
-61.022

> <W(PB)>
-63.285

> <W(SA)>
2.263

> <Valence>
7.933

> <Coulomb>
-0.124

> <VdW>
0.778

> <VdW6>
-7.981

> <VdW12>
8.759

> <Bond>
0.160

> <Angle>
2.698

> <Pdih>
5.074

> <Idih>
0.001

> <Tether>
0.000

$$$$
VeraChem MOL file


 22 21  0  0  0  0  0  0  0  0999 V2000     
   19.1664   22.0844   21.2352 C   0  0  0  0  0  0  0  0  0  0  0  0
   20.0460   22.8228   21.6323 O   0  5  0  0  0  0  0  0  0  0  0  0
   18.2757   22.4400   20.4889 O   0  0  0  0  0  0  0  0  0  0  0  0
   19.1942   20.6265   21.6796 C   0  0  0  0  0  0  0  0  0  0  0  0
   18.1602   20.2648   21.7275 H   0  0  0  0  0  0  0  0  0  0  0  0
   19.6021   20.5979   22.6962 H   0  0  0  0  0  0  0  0  0  0  0  0
   20.0337   19.7276   20.7370 C   0  0  0  0  0  0  0  0  0  0  0  0
   19.6898   19.8820   19.7049 H   0  0  0  0  0  0  0  0  0  0  0  0
   21.0819   20.0557   20.7639 H   0  0  0  0  0  0  0  0  0  0  0  0
   19.9548   18.2142   21.0598 C   0  0  0  0  0  0  0  0  0  0  0  0
   20.5460   17.6833   20.3012 H   0  0  0  0  0  0  0  0  0  0  0  0
   18.9234   17.8557   20.9386 H   0  0  0  0  0  0  0  0  0  0  0  0
   20.4994   17.8227   22.4568 C   0  0  0  0  0  0  0  0  0  0  0  0
   21.0058   16.8513   22.3732 H   0  0  0  0  0  0  0  0  0  0  0  0
   21.2668   18.5405   22.7776 H   0  0  0  0  0  0  0  0  0  0  0  0
   19.3955   17.6977   23.5322 C   0  0  0  0  0  0  0  0  0  0  0  0
   18.6669   16.9352   23.2239 H   0  0  0  0  0  0  0  0  0  0  0  0
   18.8421   18.6393   23.6292 H   0  0  0  0  0  0  0  0  0  0  0  0
   19.9841   17.3130   24.9044 C   0  0  0  0  0  0  0  0  0  0  0  0
   20.5116   16.3517   24.8505 H   0  0  0  0  0  0  0  0  0  0  0  0
   19.1882   17.2213   25.6548 H   0  0  0  0  0  0  0  0  0  0  0  0
   20.6936   18.0744   25.2542 H   0  0  0  0  0  0  0  0  0  0  0  0
  1  2  1  0  0  0  0
  1  3  2  0  0  0  0
  1  4  1  0  0  0  0
  4  5  1  0  0  0  0
  4  6  1  0  0  0  0
  4  7  1  0  0  0  0
  7  8  1  0  0  0  0
  7  9  1  0  0  0  0
  7 10  1  0  0  0  0
 10 11  1  0  0  0  0
 10 12  1  0  0  0  0
 10 13  1  0  0  0  0
 13 14  1  0  0  0  0
 13 15  1  0  0  0  0
 13 16  1  0  0  0  0
 16 17  1  0  0  0  0
 16 18  1  0  0  0  0
 16 19  1  0  0  0  0
 19 20  1  0  0  0  0
 19 21  1  0  0  0  0
 19 22  1  0  0  0  0
M  END
> <VConfSearch Rank>
492

> <Conf_Id>
5

> <Delta U+W>
2.167

> <U+W>
-50.993

> <U>
10.045

> <W>
-61.037

> <W(PB)>
-63.303

> <W(SA)>
2.266

> <Valence>
10.100

> <Coulomb>
-0.883

> <VdW>
0.828

> <VdW6>
-8.177

> <VdW12>
9.005

> <Bond>
0.182

> <Angle>
2.988

> <Pdih>
6.930

> <Idih>
0.001

> <Tether>
0.000

$$$$
VeraChem MOL file


 22 21  0  0  0  0  0  0  0  0999 V2000     
   20.0248   17.9228   19.1559 C   0  0  0  0  0  0  0  0  0  0  0  0
   19.1363   18.4683   18.5318 O   0  5  0  0  0  0  0  0  0  0  0  0
   20.7761   17.0977   18.6748 O   0  0  0  0  0  0  0  0  0  0  0  0
   20.1919   18.2758   20.6295 C   0  0  0  0  0  0  0  0  0  0  0  0
   19.9204   19.3305   20.7501 H   0  0  0  0  0  0  0  0  0  0  0  0
   21.2533   18.1759   20.8859 H   0  0  0  0  0  0  0  0  0  0  0  0
   19.3291   17.3876   21.5611 C   0  0  0  0  0  0  0  0  0  0  0  0
   18.2663   17.5614   21.3432 H   0  0  0  0  0  0  0  0  0  0  0  0
   19.5235   16.3331   21.3210 H   0  0  0  0  0  0  0  0  0  0  0  0
   19.5915   17.6038   23.0727 C   0  0  0  0  0  0  0  0  0  0  0  0
   20.6286   17.3367   23.3178 H   0  0  0  0  0  0  0  0  0  0  0  0
   18.9622   16.8907   23.6226 H   0  0  0  0  0  0  0  0  0  0  0  0
   19.2676   19.0294   23.5870 C   0  0  0  0  0  0  0  0  0  0  0  0
   18.4822   19.4845   22.9681 H   0  0  0  0  0  0  0  0  0  0  0  0
   18.8492   18.9473   24.5995 H   0  0  0  0  0  0  0  0  0  0  0  0
   20.5055   19.9535   23.6523 C   0  0  0  0  0  0  0  0  0  0  0  0
   20.9748   20.0412   22.6652 H   0  0  0  0  0  0  0  0  0  0  0  0
   21.2583   19.5126   24.3201 H   0  0  0  0  0  0  0  0  0  0  0  0
   20.1343   21.3603   24.1629 C   0  0  0  0  0  0  0  0  0  0  0  0
   19.4058   21.8399   23.4961 H   0  0  0  0  0  0  0  0  0  0  0  0
   21.0239   22.0017   24.2104 H   0  0  0  0  0  0  0  0  0  0  0  0
   19.6979   21.3109   25.1691 H   0  0  0  0  0  0  0  0  0  0  0  0
  1  2  1  0  0  0  0
  1  3  2  0  0  0  0
  1  4  1  0  0  0  0
  4  5  1  0  0  0  0
  4  6  1  0  0  0  0
  4  7  1  0  0  0  0
  7  8  1  0  0  0  0
  7  9  1  0  0  0  0
  7 10  1  0  0  0  0
 10 11  1  0  0  0  0
 10 12  1  0  0  0  0
 10 13  1  0  0  0  0
 13 14  1  0  0  0  0
 13 15  1  0  0  0  0
 13 16  1  0  0  0  0
 16 17  1  0  0  0  0
 16 18  1  0  0  0  0
 16 19  1  0  0  0  0
 19 20  1  0  0  0  0
 19 21  1  0  0  0  0
 19 22  1  0  0  0  0
M  END
> <VConfSearch Rank>
493

> <Conf_Id>
6

> <Delta U+W>
2.118

> <U+W>
-51.042

> <U>
10.045

> <W>
-61.086

> <W(PB)>
-63.356

> <W(SA)>
2.270

> <Valence>
10.100

> <Coulomb>
-0.883

> <VdW>
0.828

> <VdW6>
-8.177

> <VdW12>
9.004

> <Bond>
0.182

> <Angle>
2.988

> <Pdih>
6.930

> <Idih>
0.001

> <Tether>
0.000

$$$$
VeraChem MOL file


 22 21  0  0  0  0  0  0  0  0999 V2000     
   21.2195   17.6802   20.8261 C   0  0  0  0  0  0  0  0  0  0  0  0
   21.1951   16.5042   21.1326 O   0  5  0  0  0  0  0  0  0  0  0  0
   22.1954   18.3902   20.9701 O   0  0  0  0  0  0  0  0  0  0  0  0
   19.9836   18.2818   20.1598 C   0  0  0  0  0  0  0  0  0  0  0  0
   19.8521   17.7452   19.2130 H   0  0  0  0  0  0  0  0  0  0  0  0
   20.1910   19.3273   19.9015 H   0  0  0  0  0  0  0  0  0  0  0  0
   18.6695   18.1813   20.9845 C   0  0  0  0  0  0  0  0  0  0  0  0
   17.8250   18.2932   20.2913 H   0  0  0  0  0  0  0  0  0  0  0  0
   18.5744   17.1753   21.4165 H   0  0  0  0  0  0  0  0  0  0  0  0
   18.5147   19.2521   22.0928 C   0  0  0  0  0  0  0  0  0  0  0  0
   17.4957   19.1807   22.4971 H   0  0  0  0  0  0  0  0  0  0  0  0
   18.6026   20.2549   21.6528 H   0  0  0  0  0  0  0  0  0  0  0  0
   19.5215   19.1053   23.2561 C   0  0  0  0  0  0  0  0  0  0  0  0
   19.5066   18.0720   23.6290 H   0  0  0  0  0  0  0  0  0  0  0  0
   20.5391   19.3023   22.8960 H   0  0  0  0  0  0  0  0  0  0  0  0
   19.2030   20.0769   24.4122 C   0  0  0  0  0  0  0  0  0  0  0  0
   18.1890   19.8854   24.7896 H   0  0  0  0  0  0  0  0  0  0  0  0
   19.2159   21.1108   24.0404 H   0  0  0  0  0  0  0  0  0  0  0  0
   20.2140   19.9352   25.5678 C   0  0  0  0  0  0  0  0  0  0  0  0
   20.1995   18.9175   25.9793 H   0  0  0  0  0  0  0  0  0  0  0  0
   19.9738   20.6333   26.3802 H   0  0  0  0  0  0  0  0  0  0  0  0
   21.2344   20.1516   25.2250 H   0  0  0  0  0  0  0  0  0  0  0  0
  1  2  1  0  0  0  0
  1  3  2  0  0  0  0
  1  4  1  0  0  0  0
  4  5  1  0  0  0  0
  4  6  1  0  0  0  0
  4  7  1  0  0  0  0
  7  8  1  0  0  0  0
  7  9  1  0  0  0  0
  7 10  1  0  0  0  0
 10 11  1  0  0  0  0
 10 12  1  0  0  0  0
 10 13  1  0  0  0  0
 13 14  1  0  0  0  0
 13 15  1  0  0  0  0
 13 16  1  0  0  0  0
 16 17  1  0  0  0  0
 16 18  1  0  0  0  0
 16 19  1  0  0  0  0
 19 20  1  0  0  0  0
 19 21  1  0  0  0  0
 19 22  1  0  0  0  0
M  END
> <VConfSearch Rank>
494

> <Conf_Id>
8

> <Delta U+W>
1.886

> <U+W>
-51.274

> <U>
11.237

> <W>
-62.510

> <W(PB)>
-64.777

> <W(SA)>
2.267

> <Valence>
9.029

> <Coulomb>
1.667

> <VdW>
0.540

> <VdW6>
-8.825

> <VdW12>
9.365

> <Bond>
0.186

> <Angle>
3.195

> <Pdih>
5.642

> <Idih>
0.007

> <Tether>
0.000

$$$$
VeraChem MOL file


 22 21  0  0  0  0  0  0  0  0999 V2000     
   19.0070   19.8185   25.3378 C   0  0  0  0  0  0  0  0  0  0  0  0
   19.6502   18.8792   25.7629 O   0  5  0  0  0  0  0  0  0  0  0  0
   17.8997   20.1132   25.7431 O   0  0  0  0  0  0  0  0  0  0  0  0
   19.6340   20.6952   24.2573 C   0  0  0  0  0  0  0  0  0  0  0  0
   20.7068   20.4779   24.2070 H   0  0  0  0  0  0  0  0  0  0  0  0
   19.5451   21.7358   24.5905 H   0  0  0  0  0  0  0  0  0  0  0  0
   18.9762   20.5474   22.8578 C   0  0  0  0  0  0  0  0  0  0  0  0
   17.9224   20.8496   22.9320 H   0  0  0  0  0  0  0  0  0  0  0  0
   19.4494   21.2521   22.1608 H   0  0  0  0  0  0  0  0  0  0  0  0
   19.0422   19.1194   22.2617 C   0  0  0  0  0  0  0  0  0  0  0  0
   18.4682   19.1163   21.3266 H   0  0  0  0  0  0  0  0  0  0  0  0
   18.5397   18.4124   22.9359 H   0  0  0  0  0  0  0  0  0  0  0  0
   20.4859   18.6341   21.9828 C   0  0  0  0  0  0  0  0  0  0  0  0
   20.9983   19.3487   21.3247 H   0  0  0  0  0  0  0  0  0  0  0  0
   21.0497   18.6144   22.9245 H   0  0  0  0  0  0  0  0  0  0  0  0
   20.5488   17.2195   21.3606 C   0  0  0  0  0  0  0  0  0  0  0  0
   20.0234   16.5054   22.0096 H   0  0  0  0  0  0  0  0  0  0  0  0
   21.5984   16.8960   21.3299 H   0  0  0  0  0  0  0  0  0  0  0  0
   19.9681   17.1502   19.9314 C   0  0  0  0  0  0  0  0  0  0  0  0
   18.8889   17.3472   19.9260 H   0  0  0  0  0  0  0  0  0  0  0  0
   20.1247   16.1522   19.5021 H   0  0  0  0  0  0  0  0  0  0  0  0
   20.4556   17.8812   19.2732 H   0  0  0  0  0  0  0  0  0  0  0  0
  1  2  1  0  0  0  0
  1  3  2  0  0  0  0
  1  4  1  0  0  0  0
  4  5  1  0  0  0  0
  4  6  1  0  0  0  0
  4  7  1  0  0  0  0
  7  8  1  0  0  0  0
  7  9  1  0  0  0  0
  7 10  1  0  0  0  0
 10 11  1  0  0  0  0
 10 12  1  0  0  0  0
 10 13  1  0  0  0  0
 13 14  1  0  0  0  0
 13 15  1  0  0  0  0
 13 16  1  0  0  0  0
 16 17  1  0  0  0  0
 16 18  1  0  0  0  0
 16 19  1  0  0  0  0
 19 20  1  0  0  0  0
 19 21  1  0  0  0  0
 19 22  1  0  0  0  0
M  END
> <VConfSearch Rank>
495

> <Conf_Id>
93

> <Delta U+W>
1.836

> <U+W>
-51.323

> <U>
10.427

> <W>
-61.751

> <W(PB)>
-63.980

> <W(SA)>
2.230

> <Valence>
8.446

> <Coulomb>
1.306

> <VdW>
0.676

> <VdW6>
-8.928

> <VdW12>
9.604

> <Bond>
0.209

> <Angle>
3.066

> <Pdih>
5.170

> <Idih>
0.001

> <Tether>
0.000

$$$$
VeraChem MOL file


 22 21  0  0  0  0  0  0  0  0999 V2000     
   18.5712   16.2544   22.2403 C   0  0  0  0  0  0  0  0  0  0  0  0
   19.1584   15.2948   21.7805 O   0  5  0  0  0  0  0  0  0  0  0  0
   17.5477   16.7064   21.7660 O   0  0  0  0  0  0  0  0  0  0  0  0
   19.1353   16.9070   23.4993 C   0  0  0  0  0  0  0  0  0  0  0  0
   19.3174   16.1072   24.2266 H   0  0  0  0  0  0  0  0  0  0  0  0
   18.3647   17.5519   23.9364 H   0  0  0  0  0  0  0  0  0  0  0  0
   20.4511   17.7000   23.2693 C   0  0  0  0  0  0  0  0  0  0  0  0
   20.8133   18.0844   24.2323 H   0  0  0  0  0  0  0  0  0  0  0  0
   21.2208   17.0045   22.9072 H   0  0  0  0  0  0  0  0  0  0  0  0
   20.3301   18.8730   22.2654 C   0  0  0  0  0  0  0  0  0  0  0  0
   20.0022   18.4927   21.2882 H   0  0  0  0  0  0  0  0  0  0  0  0
   21.3323   19.2930   22.1134 H   0  0  0  0  0  0  0  0  0  0  0  0
   19.3680   19.9909   22.7367 C   0  0  0  0  0  0  0  0  0  0  0  0
   18.3610   19.5727   22.8633 H   0  0  0  0  0  0  0  0  0  0  0  0
   19.6810   20.3603   23.7226 H   0  0  0  0  0  0  0  0  0  0  0  0
   19.2706   21.1752   21.7467 C   0  0  0  0  0  0  0  0  0  0  0  0
   18.4681   21.8471   22.0811 H   0  0  0  0  0  0  0  0  0  0  0  0
   18.9727   20.8061   20.7556 H   0  0  0  0  0  0  0  0  0  0  0  0
   20.5787   21.9874   21.6292 C   0  0  0  0  0  0  0  0  0  0  0  0
   21.3837   21.3906   21.1829 H   0  0  0  0  0  0  0  0  0  0  0  0
   20.9139   22.3371   22.6143 H   0  0  0  0  0  0  0  0  0  0  0  0
   20.4270   22.8681   20.9919 H   0  0  0  0  0  0  0  0  0  0  0  0
  1  2  1  0  0  0  0
  1  3  2  0  0  0  0
  1  4  1  0  0  0  0
  4  5  1  0  0  0  0
  4  6  1  0  0  0  0
  4  7  1  0  0  0  0
  7  8  1  0  0  0  0
  7  9  1  0  0  0  0
  7 10  1  0  0  0  0
 10 11  1  0  0  0  0
 10 12  1  0  0  0  0
 10 13  1  0  0  0  0
 13 14  1  0  0  0  0
 13 15  1  0  0  0  0
 13 16  1  0  0  0  0
 16 17  1  0  0  0  0
 16 18  1  0  0  0  0
 16 19  1  0  0  0  0
 19 20  1  0  0  0  0
 19 21  1  0  0  0  0
 19 22  1  0  0  0  0
M  END
> <VConfSearch Rank>
496

> <Conf_Id>
70

> <Delta U+W>
1.803

> <U+W>
-51.356

> <U>
10.428

> <W>
-61.784

> <W(PB)>
-64.014

> <W(SA)>
2.230

> <Valence>
8.445

> <Coulomb>
1.306

> <VdW>
0.676

> <VdW6>
-8.929

> <VdW12>
9.605

> <Bond>
0.209

> <Angle>
3.066

> <Pdih>
5.170

> <Idih>
0.001

> <Tether>
0.000

$$$$
VeraChem MOL file


 22 21  0  0  0  0  0  0  0  0999 V2000     
   22.9992   19.1261   22.7385 C   0  0  0  0  0  0  0  0  0  0  0  0
   23.4170   18.8410   21.6334 O   0  5  0  0  0  0  0  0  0  0  0  0
   23.2960   18.5169   23.7473 O   0  0  0  0  0  0  0  0  0  0  0  0
   22.0677   20.3282   22.8670 C   0  0  0  0  0  0  0  0  0  0  0  0
   22.4966   21.1413   22.2695 H   0  0  0  0  0  0  0  0  0  0  0  0
   22.0725   20.6648   23.9107 H   0  0  0  0  0  0  0  0  0  0  0  0
   20.6153   20.0520   22.3989 C   0  0  0  0  0  0  0  0  0  0  0  0
   20.0540   20.9960   22.4017 H   0  0  0  0  0  0  0  0  0  0  0  0
   20.6379   19.6985   21.3596 H   0  0  0  0  0  0  0  0  0  0  0  0
   19.8892   19.0232   23.2984 C   0  0  0  0  0  0  0  0  0  0  0  0
   19.9552   19.3540   24.3439 H   0  0  0  0  0  0  0  0  0  0  0  0
   20.4042   18.0540   23.2477 H   0  0  0  0  0  0  0  0  0  0  0  0
   18.3970   18.8333   22.9365 C   0  0  0  0  0  0  0  0  0  0  0  0
   17.9347   18.1870   23.6950 H   0  0  0  0  0  0  0  0  0  0  0  0
   17.8781   19.7999   22.9941 H   0  0  0  0  0  0  0  0  0  0  0  0
   18.1770   18.2059   21.5415 C   0  0  0  0  0  0  0  0  0  0  0  0
   18.7393   17.2649   21.4657 H   0  0  0  0  0  0  0  0  0  0  0  0
   18.5637   18.8740   20.7608 H   0  0  0  0  0  0  0  0  0  0  0  0
   16.6832   17.9331   21.2733 C   0  0  0  0  0  0  0  0  0  0  0  0
   16.2714   17.2360   22.0147 H   0  0  0  0  0  0  0  0  0  0  0  0
   16.5434   17.4909   20.2784 H   0  0  0  0  0  0  0  0  0  0  0  0
   16.1008   18.8628   21.3160 H   0  0  0  0  0  0  0  0  0  0  0  0
  1  2  1  0  0  0  0
  1  3  2  0  0  0  0
  1  4  1  0  0  0  0
  4  5  1  0  0  0  0
  4  6  1  0  0  0  0
  4  7  1  0  0  0  0
  7  8  1  0  0  0  0
  7  9  1  0  0  0  0
  7 10  1  0  0  0  0
 10 11  1  0  0  0  0
 10 12  1  0  0  0  0
 10 13  1  0  0  0  0
 13 14  1  0  0  0  0
 13 15  1  0  0  0  0
 13 16  1  0  0  0  0
 16 17  1  0  0  0  0
 16 18  1  0  0  0  0
 16 19  1  0  0  0  0
 19 20  1  0  0  0  0
 19 21  1  0  0  0  0
 19 22  1  0  0  0  0
M  END
> <VConfSearch Rank>
497

> <Conf_Id>
85

> <Delta U+W>
0.707

> <U+W>
-52.452

> <U>
8.925

> <W>
-61.378

> <W(PB)>
-63.661

> <W(SA)>
2.283

> <Valence>
7.881

> <Coulomb>
0.349

> <VdW>
0.695

> <VdW6>
-8.049

> <VdW12>
8.743

> <Bond>
0.156

> <Angle>
2.660

> <Pdih>
5.064

> <Idih>
0.001

> <Tether>
0.000

$$$$
VeraChem MOL file


 22 21  0  0  0  0  0  0  0  0999 V2000     
   16.8138   18.1625   23.5305 C   0  0  0  0  0  0  0  0  0  0  0  0
   15.9725   18.9448   23.1340 O   0  5  0  0  0  0  0  0  0  0  0  0
   16.6723   16.9557   23.5095 O   0  0  0  0  0  0  0  0  0  0  0  0
   18.1097   18.7250   24.1081 C   0  0  0  0  0  0  0  0  0  0  0  0
   18.3094   18.1900   25.0440 H   0  0  0  0  0  0  0  0  0  0  0  0
   17.9488   19.7772   24.3720 H   0  0  0  0  0  0  0  0  0  0  0  0
   19.3337   18.5907   23.1650 C   0  0  0  0  0  0  0  0  0  0  0  0
   20.2338   18.8744   23.7247 H   0  0  0  0  0  0  0  0  0  0  0  0
   19.4547   17.5389   22.8712 H   0  0  0  0  0  0  0  0  0  0  0  0
   19.2143   19.4789   21.9048 C   0  0  0  0  0  0  0  0  0  0  0  0
   19.1802   20.5351   22.2048 H   0  0  0  0  0  0  0  0  0  0  0  0
   18.2577   19.2710   21.4062 H   0  0  0  0  0  0  0  0  0  0  0  0
   20.3502   19.2732   20.8715 C   0  0  0  0  0  0  0  0  0  0  0  0
   20.3342   18.2413   20.4949 H   0  0  0  0  0  0  0  0  0  0  0  0
   20.1267   19.9101   20.0047 H   0  0  0  0  0  0  0  0  0  0  0  0
   21.7668   19.6360   21.3830 C   0  0  0  0  0  0  0  0  0  0  0  0
   21.7041   20.4026   22.1675 H   0  0  0  0  0  0  0  0  0  0  0  0
   22.3326   20.0897   20.5575 H   0  0  0  0  0  0  0  0  0  0  0  0
   22.5626   18.4129   21.8908 C   0  0  0  0  0  0  0  0  0  0  0  0
   22.0600   17.9180   22.7294 H   0  0  0  0  0  0  0  0  0  0  0  0
   23.5604   18.7186   22.2311 H   0  0  0  0  0  0  0  0  0  0  0  0
   22.6932   17.6730   21.0904 H   0  0  0  0  0  0  0  0  0  0  0  0
  1  2  1  0  0  0  0
  1  3  2  0  0  0  0
  1  4  1  0  0  0  0
  4  5  1  0  0  0  0
  4  6  1  0  0  0  0
  4  7  1  0  0  0  0
  7  8  1  0  0  0  0
  7  9  1  0  0  0  0
  7 10  1  0  0  0  0
 10 11  1  0  0  0  0
 10 12  1  0  0  0  0
 10 13  1  0  0  0  0
 13 14  1  0  0  0  0
 13 15  1  0  0  0  0
 13 16  1  0  0  0  0
 16 17  1  0  0  0  0
 16 18  1  0  0  0  0
 16 19  1  0  0  0  0
 19 20  1  0  0  0  0
 19 21  1  0  0  0  0
 19 22  1  0  0  0  0
M  END
> <VConfSearch Rank>
498

> <Conf_Id>
82

> <Delta U+W>
3.438

> <U+W>
-49.721

> <U>
11.773

> <W>
-61.495

> <W(PB)>
-63.749

> <W(SA)>
2.254

> <Valence>
10.419

> <Coulomb>
0.565

> <VdW>
0.789

> <VdW6>
-8.847

> <VdW12>
9.636

> <Bond>
0.200

> <Angle>
3.187

> <Pdih>
7.032

> <Idih>
0.001

> <Tether>
0.000

$$$$
VeraChem MOL file


 22 21  0  0  0  0  0  0  0  0999 V2000     
   17.6325   16.4984   22.0819 C   0  0  0  0  0  0  0  0  0  0  0  0
   18.2021   15.4249   22.0954 O   0  5  0  0  0  0  0  0  0  0  0  0
   16.6265   16.7336   22.7219 O   0  0  0  0  0  0  0  0  0  0  0  0
   18.2000   17.6027   21.1941 C   0  0  0  0  0  0  0  0  0  0  0  0
   17.4181   18.3526   21.0238 H   0  0  0  0  0  0  0  0  0  0  0  0
   18.4271   17.1541   20.2199 H   0  0  0  0  0  0  0  0  0  0  0  0
   19.4754   18.2784   21.7619 C   0  0  0  0  0  0  0  0  0  0  0  0
   20.2328   17.5106   21.9719 H   0  0  0  0  0  0  0  0  0  0  0  0
   19.8904   18.9374   20.9889 H   0  0  0  0  0  0  0  0  0  0  0  0
   19.1936   19.1031   23.0392 C   0  0  0  0  0  0  0  0  0  0  0  0
   18.6764   18.4684   23.7717 H   0  0  0  0  0  0  0  0  0  0  0  0
   18.5009   19.9214   22.7997 H   0  0  0  0  0  0  0  0  0  0  0  0
   20.4616   19.6826   23.7151 C   0  0  0  0  0  0  0  0  0  0  0  0
   20.1414   20.1940   24.6331 H   0  0  0  0  0  0  0  0  0  0  0  0
   21.1199   18.8664   24.0428 H   0  0  0  0  0  0  0  0  0  0  0  0
   21.2526   20.6959   22.8505 C   0  0  0  0  0  0  0  0  0  0  0  0
   21.6491   21.4830   23.5067 H   0  0  0  0  0  0  0  0  0  0  0  0
   20.5803   21.1992   22.1421 H   0  0  0  0  0  0  0  0  0  0  0  0
   22.4423   20.0574   22.0994 C   0  0  0  0  0  0  0  0  0  0  0  0
   23.1572   19.6154   22.8055 H   0  0  0  0  0  0  0  0  0  0  0  0
   22.9762   20.8150   21.5115 H   0  0  0  0  0  0  0  0  0  0  0  0
   22.1156   19.2691   21.4117 H   0  0  0  0  0  0  0  0  0  0  0  0
  1  2  1  0  0  0  0
  1  3  2  0  0  0  0
  1  4  1  0  0  0  0
  4  5  1  0  0  0  0
  4  6  1  0  0  0  0
  4  7  1  0  0  0  0
  7  8  1  0  0  0  0
  7  9  1  0  0  0  0
  7 10  1  0  0  0  0
 10 11  1  0  0  0  0
 10 12  1  0  0  0  0
 10 13  1  0  0  0  0
 13 14  1  0  0  0  0
 13 15  1  0  0  0  0
 13 16  1  0  0  0  0
 16 17  1  0  0  0  0
 16 18  1  0  0  0  0
 16 19  1  0  0  0  0
 19 20  1  0  0  0  0
 19 21  1  0  0  0  0
 19 22  1  0  0  0  0
M  END
> <VConfSearch Rank>
499

> <Conf_Id>
94

> <Delta U+W>
3.471

> <U+W>
-49.688

> <U>
11.773

> <W>
-61.461

> <W(PB)>
-63.710

> <W(SA)>
2.248

> <Valence>
10.419

> <Coulomb>
0.566

> <VdW>
0.789

> <VdW6>
-8.847

> <VdW12>
9.636

> <Bond>
0.200

> <Angle>
3.187

> <Pdih>
7.032

> <Idih>
0.001

> <Tether>
0.000

$$$$
VeraChem MOL file


 22 21  0  0  0  0  0  0  0  0999 V2000     
   22.5192   20.3988   23.7851 C   0  0  0  0  0  0  0  0  0  0  0  0
   23.2367   20.0130   24.6869 O   0  5  0  0  0  0  0  0  0  0  0  0
   22.3367   21.5718   23.5258 O   0  0  0  0  0  0  0  0  0  0  0  0
   21.7934   19.3536   22.9456 C   0  0  0  0  0  0  0  0  0  0  0  0
   22.4304   18.4634   22.8837 H   0  0  0  0  0  0  0  0  0  0  0  0
   21.6919   19.7530   21.9301 H   0  0  0  0  0  0  0  0  0  0  0  0
   20.4044   18.9783   23.5238 C   0  0  0  0  0  0  0  0  0  0  0  0
   20.5309   18.6603   24.5679 H   0  0  0  0  0  0  0  0  0  0  0  0
   19.7653   19.8708   23.5536 H   0  0  0  0  0  0  0  0  0  0  0  0
   19.6965   17.8422   22.7438 C   0  0  0  0  0  0  0  0  0  0  0  0
   18.7501   17.6028   23.2462 H   0  0  0  0  0  0  0  0  0  0  0  0
   20.3074   16.9318   22.8117 H   0  0  0  0  0  0  0  0  0  0  0  0
   19.4199   18.1418   21.2468 C   0  0  0  0  0  0  0  0  0  0  0  0
   20.3740   18.2199   20.7093 H   0  0  0  0  0  0  0  0  0  0  0  0
   18.9021   17.2785   20.8072 H   0  0  0  0  0  0  0  0  0  0  0  0
   18.5841   19.4164   20.9734 C   0  0  0  0  0  0  0  0  0  0  0  0
   18.4768   19.5384   19.8869 H   0  0  0  0  0  0  0  0  0  0  0  0
   19.1233   20.3053   21.3271 H   0  0  0  0  0  0  0  0  0  0  0  0
   17.1781   19.3718   21.6096 C   0  0  0  0  0  0  0  0  0  0  0  0
   16.6267   18.4810   21.2819 H   0  0  0  0  0  0  0  0  0  0  0  0
   16.5965   20.2562   21.3191 H   0  0  0  0  0  0  0  0  0  0  0  0
   17.2368   19.3571   22.7052 H   0  0  0  0  0  0  0  0  0  0  0  0
  1  2  1  0  0  0  0
  1  3  2  0  0  0  0
  1  4  1  0  0  0  0
  4  5  1  0  0  0  0
  4  6  1  0  0  0  0
  4  7  1  0  0  0  0
  7  8  1  0  0  0  0
  7  9  1  0  0  0  0
  7 10  1  0  0  0  0
 10 11  1  0  0  0  0
 10 12  1  0  0  0  0
 10 13  1  0  0  0  0
 13 14  1  0  0  0  0
 13 15  1  0  0  0  0
 13 16  1  0  0  0  0
 16 17  1  0  0  0  0
 16 18  1  0  0  0  0
 16 19  1  0  0  0  0
 19 20  1  0  0  0  0
 19 21  1  0  0  0  0
 19 22  1  0  0  0  0
M  END
> <VConfSearch Rank>
500

> <Conf_Id>
56

> <Delta U+W>
0.853

> <U+W>
-52.307

> <U>
8.874

> <W>
-61.181

> <W(PB)>
-63.413

> <W(SA)>
2.232

> <Valence>
8.479

> <Coulomb>
-0.357

> <VdW>
0.753

> <VdW6>
-9.081

> <VdW12>
9.833

> <Bond>
0.221

> <Angle>
3.208

> <Pdih>
5.050

> <Idih>
0.000

> <Tether>
0.000

$$$$
VeraChem MOL file


 22 21  0  0  0  0  0  0  0  0999 V2000     
   20.4103   15.3824   20.3213 C   0  0  0  0  0  0  0  0  0  0  0  0
   21.5004   15.7084   19.8926 O   0  5  0  0  0  0  0  0  0  0  0  0
   19.9141   14.2932   20.1128 O   0  0  0  0  0  0  0  0  0  0  0  0
   19.6011   16.3679   21.1659 C   0  0  0  0  0  0  0  0  0  0  0  0
   19.3966   15.8832   22.1278 H   0  0  0  0  0  0  0  0  0  0  0  0
   18.6355   16.5105   20.6666 H   0  0  0  0  0  0  0  0  0  0  0  0
   20.2758   17.7448   21.4056 C   0  0  0  0  0  0  0  0  0  0  0  0
   21.2454   17.5944   21.9004 H   0  0  0  0  0  0  0  0  0  0  0  0
   20.4834   18.2223   20.4379 H   0  0  0  0  0  0  0  0  0  0  0  0
   19.3927   18.6752   22.2652 C   0  0  0  0  0  0  0  0  0  0  0  0
   19.1865   18.1957   23.2320 H   0  0  0  0  0  0  0  0  0  0  0  0
   18.4240   18.8240   21.7686 H   0  0  0  0  0  0  0  0  0  0  0  0
   20.0656   20.0442   22.5022 C   0  0  0  0  0  0  0  0  0  0  0  0
   21.0345   19.8960   22.9988 H   0  0  0  0  0  0  0  0  0  0  0  0
   20.2720   20.5241   21.5357 H   0  0  0  0  0  0  0  0  0  0  0  0
   19.1837   20.9745   23.3612 C   0  0  0  0  0  0  0  0  0  0  0  0
   18.9768   20.4986   24.3298 H   0  0  0  0  0  0  0  0  0  0  0  0
   18.2143   21.1267   22.8667 H   0  0  0  0  0  0  0  0  0  0  0  0
   19.8592   22.3406   23.5956 C   0  0  0  0  0  0  0  0  0  0  0  0
   20.8176   22.2204   24.1176 H   0  0  0  0  0  0  0  0  0  0  0  0
   19.2188   22.9889   24.2077 H   0  0  0  0  0  0  0  0  0  0  0  0
   20.0493   22.8532   22.6435 H   0  0  0  0  0  0  0  0  0  0  0  0
  1  2  1  0  0  0  0
  1  3  2  0  0  0  0
  1  4  1  0  0  0  0
  4  5  1  0  0  0  0
  4  6  1  0  0  0  0
  4  7  1  0  0  0  0
  7  8  1  0  0  0  0
  7  9  1  0  0  0  0
  7 10  1  0  0  0  0
 10 11  1  0  0  0  0
 10 12  1  0  0  0  0
 10 13  1  0  0  0  0
 13 14  1  0  0  0  0
 13 15  1  0  0  0  0
 13 16  1  0  0  0  0
 16 17  1  0  0  0  0
 16 18  1  0  0  0  0
 16 19  1  0  0  0  0
 19 20  1  0  0  0  0
 19 21  1  0  0  0  0
 19 22  1  0  0  0  0
M  END
> <VConfSearch Rank>
501

> <Conf_Id>
0

> <Delta U+W>
0.000

> <U+W>
-53.159

> <U>
6.763

> <W>
-59.922

> <W(PB)>
-62.256

> <W(SA)>
2.334

> <Valence>
7.600

> <Coulomb>
-2.139

> <VdW>
1.302

> <VdW6>
-6.786

> <VdW12>
8.088

> <Bond>
0.134

> <Angle>
2.720

> <Pdih>
4.746

> <Idih>
0.000

> <Tether>
0.000

$$$$
VeraChem MOL file


 22 21  0  0  0  0  0  0  0  0999 V2000     
   22.6759   17.7588   19.6345 C   0  0  0  0  0  0  0  0  0  0  0  0
   23.3041   18.6619   19.1187 O   0  5  0  0  0  0  0  0  0  0  0  0
   22.4411   16.7017   19.0833 O   0  0  0  0  0  0  0  0  0  0  0  0
   22.1328   17.9724   21.0430 C   0  0  0  0  0  0  0  0  0  0  0  0
   22.8345   18.6184   21.5843 H   0  0  0  0  0  0  0  0  0  0  0  0
   22.1235   17.0028   21.5553 H   0  0  0  0  0  0  0  0  0  0  0  0
   20.7154   18.5960   21.0532 C   0  0  0  0  0  0  0  0  0  0  0  0
   20.7391   19.5595   20.5254 H   0  0  0  0  0  0  0  0  0  0  0  0
   20.0281   17.9440   20.4963 H   0  0  0  0  0  0  0  0  0  0  0  0
   20.1884   18.8020   22.4898 C   0  0  0  0  0  0  0  0  0  0  0  0
   20.8783   19.4531   23.0440 H   0  0  0  0  0  0  0  0  0  0  0  0
   20.1673   17.8372   23.0150 H   0  0  0  0  0  0  0  0  0  0  0  0
   18.7753   19.4237   22.4968 C   0  0  0  0  0  0  0  0  0  0  0  0
   18.7961   20.3885   21.9717 H   0  0  0  0  0  0  0  0  0  0  0  0
   18.0851   18.7728   21.9426 H   0  0  0  0  0  0  0  0  0  0  0  0
   18.2480   19.6299   23.9322 C   0  0  0  0  0  0  0  0  0  0  0  0
   18.9348   20.2822   24.4892 H   0  0  0  0  0  0  0  0  0  0  0  0
   18.2239   18.6665   24.4602 H   0  0  0  0  0  0  0  0  0  0  0  0
   16.8367   20.2509   23.9350 C   0  0  0  0  0  0  0  0  0  0  0  0
   16.1215   19.6032   23.4111 H   0  0  0  0  0  0  0  0  0  0  0  0
   16.8378   21.2310   23.4402 H   0  0  0  0  0  0  0  0  0  0  0  0
   16.4775   20.3906   24.9629 H   0  0  0  0  0  0  0  0  0  0  0  0
  1  2  1  0  0  0  0
  1  3  2  0  0  0  0
  1  4  1  0  0  0  0
  4  5  1  0  0  0  0
  4  6  1  0  0  0  0
  4  7  1  0  0  0  0
  7  8  1  0  0  0  0
  7  9  1  0  0  0  0
  7 10  1  0  0  0  0
 10 11  1  0  0  0  0
 10 12  1  0  0  0  0
 10 13  1  0  0  0  0
 13 14  1  0  0  0  0
 13 15  1  0  0  0  0
 13 16  1  0  0  0  0
 16 17  1  0  0  0  0
 16 18  1  0  0  0  0
 16 19  1  0  0  0  0
 19 20  1  0  0  0  0
 19 21  1  0  0  0  0
 19 22  1  0  0  0  0
M  END
> <VConfSearch Rank>
502

> <Conf_Id>
10

> <Delta U+W>
-1.291

> <U+W>
-54.451

> <U>
5.779

> <W>
-60.230

> <W(PB)>
-62.557

> <W(SA)>
2.328

> <Valence>
7.101

> <Coulomb>
-2.079

> <VdW>
0.757

> <VdW6>
-6.496

> <VdW12>
7.253

> <Bond>
0.100

> <Angle>
2.262

> <Pdih>
4.738

> <Idih>
0.001

> <Tether>
0.000

$$$$
VeraChem MOL file


 22 21  0  0  0  0  0  0  0  0999 V2000     
   21.1540   15.2881   21.7731 C   0  0  0  0  0  0  0  0  0  0  0  0
   22.3353   15.1688   22.0312 O   0  5  0  0  0  0  0  0  0  0  0  0
   20.3483   14.3841   21.8746 O   0  0  0  0  0  0  0  0  0  0  0  0
   20.6509   16.6530   21.3169 C   0  0  0  0  0  0  0  0  0  0  0  0
   19.8173   16.4942   20.6223 H   0  0  0  0  0  0  0  0  0  0  0  0
   21.4546   17.1412   20.7526 H   0  0  0  0  0  0  0  0  0  0  0  0
   20.2015   17.5531   22.4942 C   0  0  0  0  0  0  0  0  0  0  0  0
   19.4063   17.0442   23.0566 H   0  0  0  0  0  0  0  0  0  0  0  0
   21.0433   17.6921   23.1867 H   0  0  0  0  0  0  0  0  0  0  0  0
   19.6969   18.9284   22.0063 C   0  0  0  0  0  0  0  0  0  0  0  0
   18.8542   18.7865   21.3160 H   0  0  0  0  0  0  0  0  0  0  0  0
   20.4960   19.4246   21.4402 H   0  0  0  0  0  0  0  0  0  0  0  0
   19.2530   19.8244   23.1855 C   0  0  0  0  0  0  0  0  0  0  0  0
   18.5049   19.2851   23.7823 H   0  0  0  0  0  0  0  0  0  0  0  0
   20.1070   20.0103   23.8512 H   0  0  0  0  0  0  0  0  0  0  0  0
   18.6438   21.1732   22.7373 C   0  0  0  0  0  0  0  0  0  0  0  0
   18.2496   21.6930   23.6214 H   0  0  0  0  0  0  0  0  0  0  0  0
   17.7853   20.9913   22.0761 H   0  0  0  0  0  0  0  0  0  0  0  0
   19.6582   22.0971   22.0290 C   0  0  0  0  0  0  0  0  0  0  0  0
   19.2028   23.0719   21.8116 H   0  0  0  0  0  0  0  0  0  0  0  0
   19.9942   21.6680   21.0768 H   0  0  0  0  0  0  0  0  0  0  0  0
   20.5400   22.2692   22.6599 H   0  0  0  0  0  0  0  0  0  0  0  0
  1  2  1  0  0  0  0
  1  3  2  0  0  0  0
  1  4  1  0  0  0  0
  4  5  1  0  0  0  0
  4  6  1  0  0  0  0
  4  7  1  0  0  0  0
  7  8  1  0  0  0  0
  7  9  1  0  0  0  0
  7 10  1  0  0  0  0
 10 11  1  0  0  0  0
 10 12  1  0  0  0  0
 10 13  1  0  0  0  0
 13 14  1  0  0  0  0
 13 15  1  0  0  0  0
 13 16  1  0  0  0  0
 16 17  1  0  0  0  0
 16 18  1  0  0  0  0
 16 19  1  0  0  0  0
 19 20  1  0  0  0  0
 19 21  1  0  0  0  0
 19 22  1  0  0  0  0
M  END
> <VConfSearch Rank>
503

> <Conf_Id>
37

> <Delta U+W>
-0.345

> <U+W>
-53.504

> <U>
6.751

> <W>
-60.255

> <W(PB)>
-62.592

> <W(SA)>
2.336

> <Valence>
7.602

> <Coulomb>
-1.744

> <VdW>
0.894

> <VdW6>
-7.110

> <VdW12>
8.004

> <Bond>
0.131

> <Angle>
2.489

> <Pdih>
4.982

> <Idih>
0.001

> <Tether>
0.000

$$$$
VeraChem MOL file


 22 21  0  0  0  0  0  0  0  0999 V2000     
   22.9589   17.3848   20.6218 C   0  0  0  0  0  0  0  0  0  0  0  0
   22.6964   16.4156   19.9376 O   0  5  0  0  0  0  0  0  0  0  0  0
   24.0265   17.5460   21.1791 O   0  0  0  0  0  0  0  0  0  0  0  0
   21.8815   18.4471   20.8091 C   0  0  0  0  0  0  0  0  0  0  0  0
   21.2802   18.4878   19.8928 H   0  0  0  0  0  0  0  0  0  0  0  0
   22.3767   19.4197   20.9154 H   0  0  0  0  0  0  0  0  0  0  0  0
   20.9728   18.1734   22.0328 C   0  0  0  0  0  0  0  0  0  0  0  0
   20.4941   17.1911   21.9171 H   0  0  0  0  0  0  0  0  0  0  0  0
   21.5915   18.1222   22.9395 H   0  0  0  0  0  0  0  0  0  0  0  0
   19.8910   19.2625   22.2006 C   0  0  0  0  0  0  0  0  0  0  0  0
   19.2839   19.3101   21.2872 H   0  0  0  0  0  0  0  0  0  0  0  0
   20.3724   20.2429   22.3183 H   0  0  0  0  0  0  0  0  0  0  0  0
   18.9843   18.9827   23.4212 C   0  0  0  0  0  0  0  0  0  0  0  0
   18.4620   18.0261   23.2829 H   0  0  0  0  0  0  0  0  0  0  0  0
   19.6130   18.8676   24.3146 H   0  0  0  0  0  0  0  0  0  0  0  0
   17.9511   20.1018   23.6889 C   0  0  0  0  0  0  0  0  0  0  0  0
   18.4703   21.0592   23.8341 H   0  0  0  0  0  0  0  0  0  0  0  0
   17.4324   19.8840   24.6327 H   0  0  0  0  0  0  0  0  0  0  0  0
   16.9007   20.2454   22.5663 C   0  0  0  0  0  0  0  0  0  0  0  0
   16.3891   19.2917   22.3825 H   0  0  0  0  0  0  0  0  0  0  0  0
   17.3608   20.5765   21.6269 H   0  0  0  0  0  0  0  0  0  0  0  0
   16.1416   20.9881   22.8439 H   0  0  0  0  0  0  0  0  0  0  0  0
  1  2  1  0  0  0  0
  1  3  2  0  0  0  0
  1  4  1  0  0  0  0
  4  5  1  0  0  0  0
  4  6  1  0  0  0  0
  4  7  1  0  0  0  0
  7  8  1  0  0  0  0
  7  9  1  0  0  0  0
  7 10  1  0  0  0  0
 10 11  1  0  0  0  0
 10 12  1  0  0  0  0
 10 13  1  0  0  0  0
 13 14  1  0  0  0  0
 13 15  1  0  0  0  0
 13 16  1  0  0  0  0
 16 17  1  0  0  0  0
 16 18  1  0  0  0  0
 16 19  1  0  0  0  0
 19 20  1  0  0  0  0
 19 21  1  0  0  0  0
 19 22  1  0  0  0  0
M  END
> <VConfSearch Rank>
504

> <Conf_Id>
38

> <Delta U+W>
-0.439

> <U+W>
-53.598

> <U>
6.751

> <W>
-60.350

> <W(PB)>
-62.659

> <W(SA)>
2.309

> <Valence>
7.602

> <Coulomb>
-1.744

> <VdW>
0.893

> <VdW6>
-7.110

> <VdW12>
8.004

> <Bond>
0.131

> <Angle>
2.489

> <Pdih>
4.981

> <Idih>
0.001

> <Tether>
0.000

$$$$
VeraChem MOL file


 22 21  0  0  0  0  0  0  0  0999 V2000     
   20.9842   21.5107   19.6321 C   0  0  0  0  0  0  0  0  0  0  0  0
   21.6797   22.4756   19.8813 O   0  5  0  0  0  0  0  0  0  0  0  0
   20.2827   21.4245   18.6437 O   0  0  0  0  0  0  0  0  0  0  0  0
   20.9742   20.3546   20.6258 C   0  0  0  0  0  0  0  0  0  0  0  0
   21.9651   20.2983   21.0920 H   0  0  0  0  0  0  0  0  0  0  0  0
   20.8286   19.4292   20.0575 H   0  0  0  0  0  0  0  0  0  0  0  0
   19.8792   20.5083   21.7134 C   0  0  0  0  0  0  0  0  0  0  0  0
   19.9980   21.4889   22.1948 H   0  0  0  0  0  0  0  0  0  0  0  0
   18.8881   20.5144   21.2390 H   0  0  0  0  0  0  0  0  0  0  0  0
   19.9300   19.4128   22.8051 C   0  0  0  0  0  0  0  0  0  0  0  0
   19.2185   19.6870   23.5944 H   0  0  0  0  0  0  0  0  0  0  0  0
   20.9246   19.4039   23.2714 H   0  0  0  0  0  0  0  0  0  0  0  0
   19.5889   17.9987   22.2741 C   0  0  0  0  0  0  0  0  0  0  0  0
   18.5951   18.0082   21.8062 H   0  0  0  0  0  0  0  0  0  0  0  0
   20.3015   17.7219   21.4869 H   0  0  0  0  0  0  0  0  0  0  0  0
   19.6356   16.9048   23.3665 C   0  0  0  0  0  0  0  0  0  0  0  0
   20.6247   16.8997   23.8449 H   0  0  0  0  0  0  0  0  0  0  0  0
   19.5188   15.9235   22.8861 H   0  0  0  0  0  0  0  0  0  0  0  0
   18.5382   17.0628   24.4414 C   0  0  0  0  0  0  0  0  0  0  0  0
   18.6842   17.9746   25.0337 H   0  0  0  0  0  0  0  0  0  0  0  0
   18.5550   16.2115   25.1343 H   0  0  0  0  0  0  0  0  0  0  0  0
   17.5418   17.1051   23.9826 H   0  0  0  0  0  0  0  0  0  0  0  0
  1  2  1  0  0  0  0
  1  3  2  0  0  0  0
  1  4  1  0  0  0  0
  4  5  1  0  0  0  0
  4  6  1  0  0  0  0
  4  7  1  0  0  0  0
  7  8  1  0  0  0  0
  7  9  1  0  0  0  0
  7 10  1  0  0  0  0
 10 11  1  0  0  0  0
 10 12  1  0  0  0  0
 10 13  1  0  0  0  0
 13 14  1  0  0  0  0
 13 15  1  0  0  0  0
 13 16  1  0  0  0  0
 16 17  1  0  0  0  0
 16 18  1  0  0  0  0
 16 19  1  0  0  0  0
 19 20  1  0  0  0  0
 19 21  1  0  0  0  0
 19 22  1  0  0  0  0
M  END
> <VConfSearch Rank>
505

> <Conf_Id>
60

> <Delta U+W>
0.386

> <U+W>
-52.773

> <U>
7.689

> <W>
-60.463

> <W(PB)>
-62.772

> <W(SA)>
2.309

> <Valence>
8.197

> <Coulomb>
-1.561

> <VdW>
1.053

> <VdW6>
-7.737

> <VdW12>
8.790

> <Bond>
0.181

> <Angle>
2.780

> <Pdih>
5.235

> <Idih>
0.001

> <Tether>
0.000

$$$$
VeraChem MOL file


 22 21  0  0  0  0  0  0  0  0999 V2000     
   19.6663   15.6560   24.0791 C   0  0  0  0  0  0  0  0  0  0  0  0
   19.2488   14.7854   23.3412 O   0  5  0  0  0  0  0  0  0  0  0  0
   19.6721   15.5651   25.2908 O   0  0  0  0  0  0  0  0  0  0  0  0
   20.1908   16.9423   23.4510 C   0  0  0  0  0  0  0  0  0  0  0  0
   20.6511   16.6803   22.4919 H   0  0  0  0  0  0  0  0  0  0  0  0
   20.9846   17.3368   24.0966 H   0  0  0  0  0  0  0  0  0  0  0  0
   19.0820   18.0088   23.2540 C   0  0  0  0  0  0  0  0  0  0  0  0
   18.3170   17.6212   22.5669 H   0  0  0  0  0  0  0  0  0  0  0  0
   18.5786   18.1735   24.2167 H   0  0  0  0  0  0  0  0  0  0  0  0
   19.6117   19.3669   22.7348 C   0  0  0  0  0  0  0  0  0  0  0  0
   20.3819   19.7474   23.4194 H   0  0  0  0  0  0  0  0  0  0  0  0
   18.7847   20.0876   22.7649 H   0  0  0  0  0  0  0  0  0  0  0  0
   20.1800   19.2963   21.2960 C   0  0  0  0  0  0  0  0  0  0  0  0
   21.0092   18.5782   21.2651 H   0  0  0  0  0  0  0  0  0  0  0  0
   19.4103   18.9139   20.6118 H   0  0  0  0  0  0  0  0  0  0  0  0
   20.7052   20.6549   20.7759 C   0  0  0  0  0  0  0  0  0  0  0  0
   21.2107   20.4911   19.8142 H   0  0  0  0  0  0  0  0  0  0  0  0
   21.4673   21.0463   21.4638 H   0  0  0  0  0  0  0  0  0  0  0  0
   19.5933   21.7079   20.5769 C   0  0  0  0  0  0  0  0  0  0  0  0
   18.8023   21.3247   19.9193 H   0  0  0  0  0  0  0  0  0  0  0  0
   20.0037   22.6165   20.1175 H   0  0  0  0  0  0  0  0  0  0  0  0
   19.1378   21.9967   21.5322 H   0  0  0  0  0  0  0  0  0  0  0  0
  1  2  1  0  0  0  0
  1  3  2  0  0  0  0
  1  4  1  0  0  0  0
  4  5  1  0  0  0  0
  4  6  1  0  0  0  0
  4  7  1  0  0  0  0
  7  8  1  0  0  0  0
  7  9  1  0  0  0  0
  7 10  1  0  0  0  0
 10 11  1  0  0  0  0
 10 12  1  0  0  0  0
 10 13  1  0  0  0  0
 13 14  1  0  0  0  0
 13 15  1  0  0  0  0
 13 16  1  0  0  0  0
 16 17  1  0  0  0  0
 16 18  1  0  0  0  0
 16 19  1  0  0  0  0
 19 20  1  0  0  0  0
 19 21  1  0  0  0  0
 19 22  1  0  0  0  0
M  END
> <VConfSearch Rank>
506

> <Conf_Id>
28

> <Delta U+W>
0.351

> <U+W>
-52.808

> <U>
7.689

> <W>
-60.498

> <W(PB)>
-62.768

> <W(SA)>
2.270

> <Valence>
8.197

> <Coulomb>
-1.561

> <VdW>
1.053

> <VdW6>
-7.737

> <VdW12>
8.791

> <Bond>
0.181

> <Angle>
2.780

> <Pdih>
5.235

> <Idih>
0.001

> <Tether>
0.000

$$$$
VeraChem MOL file


 22 21  0  0  0  0  0  0  0  0999 V2000     
   22.9213   16.6990   22.5774 C   0  0  0  0  0  0  0  0  0  0  0  0
   22.9883   15.7473   21.8249 O   0  5  0  0  0  0  0  0  0  0  0  0
   23.8677   17.4120   22.8466 O   0  0  0  0  0  0  0  0  0  0  0  0
   21.5706   17.0287   23.2027 C   0  0  0  0  0  0  0  0  0  0  0  0
   21.7506   17.4617   24.1941 H   0  0  0  0  0  0  0  0  0  0  0  0
   21.0265   16.0885   23.3534 H   0  0  0  0  0  0  0  0  0  0  0  0
   20.7295   18.0015   22.3399 C   0  0  0  0  0  0  0  0  0  0  0  0
   21.3026   18.9254   22.1866 H   0  0  0  0  0  0  0  0  0  0  0  0
   20.5656   17.5576   21.3482 H   0  0  0  0  0  0  0  0  0  0  0  0
   19.3681   18.3221   22.9994 C   0  0  0  0  0  0  0  0  0  0  0  0
   19.5320   18.8141   23.9680 H   0  0  0  0  0  0  0  0  0  0  0  0
   18.8449   17.3802   23.2138 H   0  0  0  0  0  0  0  0  0  0  0  0
   18.4496   19.2033   22.1200 C   0  0  0  0  0  0  0  0  0  0  0  0
   18.2821   18.7098   21.1529 H   0  0  0  0  0  0  0  0  0  0  0  0
   17.4670   19.2750   22.6062 H   0  0  0  0  0  0  0  0  0  0  0  0
   18.9997   20.6288   21.8891 C   0  0  0  0  0  0  0  0  0  0  0  0
   19.9458   20.5841   21.3339 H   0  0  0  0  0  0  0  0  0  0  0  0
   19.2170   21.1034   22.8560 H   0  0  0  0  0  0  0  0  0  0  0  0
   17.9990   21.5007   21.1042 C   0  0  0  0  0  0  0  0  0  0  0  0
   17.0513   21.5997   21.6497 H   0  0  0  0  0  0  0  0  0  0  0  0
   17.7845   21.0629   20.1205 H   0  0  0  0  0  0  0  0  0  0  0  0
   18.4052   22.5081   20.9456 H   0  0  0  0  0  0  0  0  0  0  0  0
  1  2  1  0  0  0  0
  1  3  2  0  0  0  0
  1  4  1  0  0  0  0
  4  5  1  0  0  0  0
  4  6  1  0  0  0  0
  4  7  1  0  0  0  0
  7  8  1  0  0  0  0
  7  9  1  0  0  0  0
  7 10  1  0  0  0  0
 10 11  1  0  0  0  0
 10 12  1  0  0  0  0
 10 13  1  0  0  0  0
 13 14  1  0  0  0  0
 13 15  1  0  0  0  0
 13 16  1  0  0  0  0
 16 17  1  0  0  0  0
 16 18  1  0  0  0  0
 16 19  1  0  0  0  0
 19 20  1  0  0  0  0
 19 21  1  0  0  0  0
 19 22  1  0  0  0  0
M  END
> <VConfSearch Rank>
507

> <Conf_Id>
50

> <Delta U+W>
-0.486

> <U+W>
-53.646

> <U>
7.026

> <W>
-60.672

> <W(PB)>
-62.964

> <W(SA)>
2.292

> <Valence>
7.637

> <Coulomb>
-1.488

> <VdW>
0.877

> <VdW6>
-7.165

> <VdW12>
8.043

> <Bond>
0.134

> <Angle>
2.513

> <Pdih>
4.990

> <Idih>
0.001

> <Tether>
0.000

$$$$
VeraChem MOL file


 22 21  0  0  0  0  0  0  0  0999 V2000     
   19.4966   17.2011   25.5153 C   0  0  0  0  0  0  0  0  0  0  0  0
   20.0429   17.7126   26.4726 O   0  5  0  0  0  0  0  0  0  0  0  0
   19.5367   16.0108   25.2742 O   0  0  0  0  0  0  0  0  0  0  0  0
   18.7357   18.1055   24.5523 C   0  0  0  0  0  0  0  0  0  0  0  0
   18.3112   18.9362   25.1289 H   0  0  0  0  0  0  0  0  0  0  0  0
   17.8955   17.5341   24.1400 H   0  0  0  0  0  0  0  0  0  0  0  0
   19.6254   18.6485   23.4069 C   0  0  0  0  0  0  0  0  0  0  0  0
   20.4666   19.2102   23.8362 H   0  0  0  0  0  0  0  0  0  0  0  0
   20.0539   17.7996   22.8581 H   0  0  0  0  0  0  0  0  0  0  0  0
   18.8281   19.5582   22.4438 C   0  0  0  0  0  0  0  0  0  0  0  0
   18.3453   20.3562   23.0243 H   0  0  0  0  0  0  0  0  0  0  0  0
   18.0188   18.9822   21.9744 H   0  0  0  0  0  0  0  0  0  0  0  0
   19.7024   20.2110   21.3470 C   0  0  0  0  0  0  0  0  0  0  0  0
   19.0851   20.9311   20.7926 H   0  0  0  0  0  0  0  0  0  0  0  0
   20.5095   20.7903   21.8160 H   0  0  0  0  0  0  0  0  0  0  0  0
   20.3027   19.1937   20.3504 C   0  0  0  0  0  0  0  0  0  0  0  0
   19.5004   18.5784   19.9204 H   0  0  0  0  0  0  0  0  0  0  0  0
   20.9862   18.5109   20.8719 H   0  0  0  0  0  0  0  0  0  0  0  0
   21.0703   19.9004   19.2149 C   0  0  0  0  0  0  0  0  0  0  0  0
   21.8968   20.5021   19.6153 H   0  0  0  0  0  0  0  0  0  0  0  0
   20.4069   20.5645   18.6455 H   0  0  0  0  0  0  0  0  0  0  0  0
   21.4930   19.1651   18.5179 H   0  0  0  0  0  0  0  0  0  0  0  0
  1  2  1  0  0  0  0
  1  3  2  0  0  0  0
  1  4  1  0  0  0  0
  4  5  1  0  0  0  0
  4  6  1  0  0  0  0
  4  7  1  0  0  0  0
  7  8  1  0  0  0  0
  7  9  1  0  0  0  0
  7 10  1  0  0  0  0
 10 11  1  0  0  0  0
 10 12  1  0  0  0  0
 10 13  1  0  0  0  0
 13 14  1  0  0  0  0
 13 15  1  0  0  0  0
 13 16  1  0  0  0  0
 16 17  1  0  0  0  0
 16 18  1  0  0  0  0
 16 19  1  0  0  0  0
 19 20  1  0  0  0  0
 19 21  1  0  0  0  0
 19 22  1  0  0  0  0
M  END
> <VConfSearch Rank>
508

> <Conf_Id>
51

> <Delta U+W>
-0.517

> <U+W>
-53.677

> <U>
7.026

> <W>
-60.703

> <W(PB)>
-63.007

> <W(SA)>
2.304

> <Valence>
7.638

> <Coulomb>
-1.488

> <VdW>
0.877

> <VdW6>
-7.165

> <VdW12>
8.042

> <Bond>
0.134

> <Angle>
2.513

> <Pdih>
4.990

> <Idih>
0.001

> <Tether>
0.000

$$$$
VeraChem MOL file


 22 21  0  0  0  0  0  0  0  0999 V2000     
   19.3546   22.2567   22.7758 C   0  0  0  0  0  0  0  0  0  0  0  0
   18.2228   22.4921   23.1505 O   0  5  0  0  0  0  0  0  0  0  0  0
   20.3477   22.5425   23.4153 O   0  0  0  0  0  0  0  0  0  0  0  0
   19.5371   21.5823   21.4190 C   0  0  0  0  0  0  0  0  0  0  0  0
   20.5663   21.7508   21.0797 H   0  0  0  0  0  0  0  0  0  0  0  0
   18.8801   22.0954   20.7068 H   0  0  0  0  0  0  0  0  0  0  0  0
   19.2152   20.0653   21.4203 C   0  0  0  0  0  0  0  0  0  0  0  0
   18.1915   19.9107   21.7888 H   0  0  0  0  0  0  0  0  0  0  0  0
   19.2382   19.6952   20.3863 H   0  0  0  0  0  0  0  0  0  0  0  0
   20.2086   19.2478   22.2761 C   0  0  0  0  0  0  0  0  0  0  0  0
   20.1788   19.6009   23.3162 H   0  0  0  0  0  0  0  0  0  0  0  0
   21.2314   19.4159   21.9120 H   0  0  0  0  0  0  0  0  0  0  0  0
   19.8884   17.7380   22.2378 C   0  0  0  0  0  0  0  0  0  0  0  0
   18.8655   17.5706   22.6020 H   0  0  0  0  0  0  0  0  0  0  0  0
   19.9204   17.3818   21.1990 H   0  0  0  0  0  0  0  0  0  0  0  0
   20.8796   16.9210   23.0929 C   0  0  0  0  0  0  0  0  0  0  0  0
   20.8491   17.2734   24.1333 H   0  0  0  0  0  0  0  0  0  0  0  0
   21.9039   17.0846   22.7304 H   0  0  0  0  0  0  0  0  0  0  0  0
   20.5564   15.4139   23.0527 C   0  0  0  0  0  0  0  0  0  0  0  0
   19.5479   15.2181   23.4399 H   0  0  0  0  0  0  0  0  0  0  0  0
   21.2704   14.8487   23.6657 H   0  0  0  0  0  0  0  0  0  0  0  0
   20.6106   15.0278   22.0264 H   0  0  0  0  0  0  0  0  0  0  0  0
  1  2  1  0  0  0  0
  1  3  2  0  0  0  0
  1  4  1  0  0  0  0
  4  5  1  0  0  0  0
  4  6  1  0  0  0  0
  4  7  1  0  0  0  0
  7  8  1  0  0  0  0
  7  9  1  0  0  0  0
  7 10  1  0  0  0  0
 10 11  1  0  0  0  0
 10 12  1  0  0  0  0
 10 13  1  0  0  0  0
 13 14  1  0  0  0  0
 13 15  1  0  0  0  0
 13 16  1  0  0  0  0
 16 17  1  0  0  0  0
 16 18  1  0  0  0  0
 16 19  1  0  0  0  0
 19 20  1  0  0  0  0
 19 21  1  0  0  0  0
 19 22  1  0  0  0  0
M  END
> <VConfSearch Rank>
509

> <Conf_Id>
43

> <Delta U+W>
-0.129

> <U+W>
-53.289

> <U>
7.937

> <W>
-61.225

> <W(PB)>
-63.523

> <W(SA)>
2.297

> <Valence>
7.358

> <Coulomb>
-0.022

> <VdW>
0.601

> <VdW6>
-7.363

> <VdW12>
7.964

> <Bond>
0.121

> <Angle>
2.425

> <Pdih>
4.811

> <Idih>
0.000

> <Tether>
0.000

$$$$
VeraChem MOL file


 22 21  0  0  0  0  0  0  0  0999 V2000     
   17.6281   19.0652   19.5640 C   0  0  0  0  0  0  0  0  0  0  0  0
   16.5685   18.5029   19.7587 O   0  5  0  0  0  0  0  0  0  0  0  0
   18.4413   18.7000   18.7380 O   0  0  0  0  0  0  0  0  0  0  0  0
   17.9446   20.3087   20.3902 C   0  0  0  0  0  0  0  0  0  0  0  0
   17.0470   20.9383   20.3921 H   0  0  0  0  0  0  0  0  0  0  0  0
   18.7306   20.8780   19.8793 H   0  0  0  0  0  0  0  0  0  0  0  0
   18.3671   20.0047   21.8510 C   0  0  0  0  0  0  0  0  0  0  0  0
   18.4396   20.9503   22.4052 H   0  0  0  0  0  0  0  0  0  0  0  0
   17.5829   19.4106   22.3405 H   0  0  0  0  0  0  0  0  0  0  0  0
   19.7181   19.2596   21.9361 C   0  0  0  0  0  0  0  0  0  0  0  0
   20.4958   19.8514   21.4340 H   0  0  0  0  0  0  0  0  0  0  0  0
   19.6483   18.3040   21.3981 H   0  0  0  0  0  0  0  0  0  0  0  0
   20.1342   18.9953   23.3991 C   0  0  0  0  0  0  0  0  0  0  0  0
   20.2075   19.9497   23.9384 H   0  0  0  0  0  0  0  0  0  0  0  0
   19.3561   18.4035   23.9005 H   0  0  0  0  0  0  0  0  0  0  0  0
   21.4829   18.2506   23.4848 C   0  0  0  0  0  0  0  0  0  0  0  0
   22.2642   18.8405   22.9857 H   0  0  0  0  0  0  0  0  0  0  0  0
   21.4128   17.2944   22.9478 H   0  0  0  0  0  0  0  0  0  0  0  0
   21.8948   17.9879   24.9472 C   0  0  0  0  0  0  0  0  0  0  0  0
   22.0031   18.9302   25.5001 H   0  0  0  0  0  0  0  0  0  0  0  0
   22.8553   17.4579   24.9894 H   0  0  0  0  0  0  0  0  0  0  0  0
   21.1453   17.3725   25.4619 H   0  0  0  0  0  0  0  0  0  0  0  0
  1  2  1  0  0  0  0
  1  3  2  0  0  0  0
  1  4  1  0  0  0  0
  4  5  1  0  0  0  0
  4  6  1  0  0  0  0
  4  7  1  0  0  0  0
  7  8  1  0  0  0  0
  7  9  1  0  0  0  0
  7 10  1  0  0  0  0
 10 11  1  0  0  0  0
 10 12  1  0  0  0  0
 10 13  1  0  0  0  0
 13 14  1  0  0  0  0
 13 15  1  0  0  0  0
 13 16  1  0  0  0  0
 16 17  1  0  0  0  0
 16 18  1  0  0  0  0
 16 19  1  0  0  0  0
 19 20  1  0  0  0  0
 19 21  1  0  0  0  0
 19 22  1  0  0  0  0
M  END
> <VConfSearch Rank>
510

> <Conf_Id>
44

> <Delta U+W>
-0.155

> <U+W>
-53.314

> <U>
7.937

> <W>
-61.252

> <W(PB)>
-63.556

> <W(SA)>
2.304

> <Valence>
7.358

> <Coulomb>
-0.021

> <VdW>
0.600

> <VdW6>
-7.363

> <VdW12>
7.964

> <Bond>
0.121

> <Angle>
2.425

> <Pdih>
4.811

> <Idih>
0.001

> <Tether>
0.000

$$$$
VeraChem MOL file


 22 21  0  0  0  0  0  0  0  0999 V2000     
   20.3853   20.7080   25.3507 C   0  0  0  0  0  0  0  0  0  0  0  0
   19.3551   21.0696   25.8843 O   0  5  0  0  0  0  0  0  0  0  0  0
   21.3400   21.4376   25.1685 O   0  0  0  0  0  0  0  0  0  0  0  0
   20.4910   19.2528   24.9029 C   0  0  0  0  0  0  0  0  0  0  0  0
   20.1198   18.6299   25.7253 H   0  0  0  0  0  0  0  0  0  0  0  0
   21.5505   19.0031   24.7690 H   0  0  0  0  0  0  0  0  0  0  0  0
   19.6973   18.9294   23.6102 C   0  0  0  0  0  0  0  0  0  0  0  0
   19.7071   17.8425   23.4594 H   0  0  0  0  0  0  0  0  0  0  0  0
   18.6469   19.2220   23.7454 H   0  0  0  0  0  0  0  0  0  0  0  0
   20.2820   19.6342   22.3625 C   0  0  0  0  0  0  0  0  0  0  0  0
   21.3190   19.3082   22.2044 H   0  0  0  0  0  0  0  0  0  0  0  0
   20.3231   20.7166   22.5462 H   0  0  0  0  0  0  0  0  0  0  0  0
   19.4597   19.3909   21.0747 C   0  0  0  0  0  0  0  0  0  0  0  0
   18.4226   19.7169   21.2334 H   0  0  0  0  0  0  0  0  0  0  0  0
   19.8666   20.0278   20.2774 H   0  0  0  0  0  0  0  0  0  0  0  0
   19.4771   17.9206   20.5990 C   0  0  0  0  0  0  0  0  0  0  0  0
   19.0008   17.2745   21.3479 H   0  0  0  0  0  0  0  0  0  0  0  0
   20.5156   17.5777   20.4929 H   0  0  0  0  0  0  0  0  0  0  0  0
   18.7427   17.7532   19.2535 C   0  0  0  0  0  0  0  0  0  0  0  0
   17.6931   18.0638   19.3381 H   0  0  0  0  0  0  0  0  0  0  0  0
   18.7608   16.7040   18.9310 H   0  0  0  0  0  0  0  0  0  0  0  0
   19.2169   18.3570   18.4688 H   0  0  0  0  0  0  0  0  0  0  0  0
  1  2  1  0  0  0  0
  1  3  2  0  0  0  0
  1  4  1  0  0  0  0
  4  5  1  0  0  0  0
  4  6  1  0  0  0  0
  4  7  1  0  0  0  0
  7  8  1  0  0  0  0
  7  9  1  0  0  0  0
  7 10  1  0  0  0  0
 10 11  1  0  0  0  0
 10 12  1  0  0  0  0
 10 13  1  0  0  0  0
 13 14  1  0  0  0  0
 13 15  1  0  0  0  0
 13 16  1  0  0  0  0
 16 17  1  0  0  0  0
 16 18  1  0  0  0  0
 16 19  1  0  0  0  0
 19 20  1  0  0  0  0
 19 21  1  0  0  0  0
 19 22  1  0  0  0  0
M  END
> <VConfSearch Rank>
511

> <Conf_Id>
53

> <Delta U+W>
0.723

> <U+W>
-52.436

> <U>
8.587

> <W>
-61.022

> <W(PB)>
-63.285

> <W(SA)>
2.263

> <Valence>
7.933

> <Coulomb>
-0.124

> <VdW>
0.778

> <VdW6>
-7.981

> <VdW12>
8.759

> <Bond>
0.160

> <Angle>
2.698

> <Pdih>
5.074

> <Idih>
0.001

> <Tether>
0.000

$$$$
VeraChem MOL file


 22 21  0  0  0  0  0  0  0  0999 V2000     
   16.7638   19.9632   23.4654 C   0  0  0  0  0  0  0  0  0  0  0  0
   16.5590   19.4502   24.5477 O   0  5  0  0  0  0  0  0  0  0  0  0
   16.0090   20.7611   22.9456 O   0  0  0  0  0  0  0  0  0  0  0  0
   18.0492   19.6033   22.7290 C   0  0  0  0  0  0  0  0  0  0  0  0
   17.8538   19.6650   21.6518 H   0  0  0  0  0  0  0  0  0  0  0  0
   18.2837   18.5588   22.9633 H   0  0  0  0  0  0  0  0  0  0  0  0
   19.2375   20.5210   23.1121 C   0  0  0  0  0  0  0  0  0  0  0  0
   18.9251   21.5681   22.9964 H   0  0  0  0  0  0  0  0  0  0  0  0
   19.4697   20.3855   24.1774 H   0  0  0  0  0  0  0  0  0  0  0  0
   20.5174   20.2943   22.2687 C   0  0  0  0  0  0  0  0  0  0  0  0
   21.2647   21.0290   22.5983 H   0  0  0  0  0  0  0  0  0  0  0  0
   20.3192   20.5238   21.2128 H   0  0  0  0  0  0  0  0  0  0  0  0
   21.1381   18.8808   22.4043 C   0  0  0  0  0  0  0  0  0  0  0  0
   22.2322   18.9769   22.3751 H   0  0  0  0  0  0  0  0  0  0  0  0
   20.8952   18.4545   23.3873 H   0  0  0  0  0  0  0  0  0  0  0  0
   20.7109   17.9129   21.2768 C   0  0  0  0  0  0  0  0  0  0  0  0
   21.0118   18.3261   20.3042 H   0  0  0  0  0  0  0  0  0  0  0  0
   19.6196   17.8093   21.2493 H   0  0  0  0  0  0  0  0  0  0  0  0
   21.3470   16.5199   21.4563 C   0  0  0  0  0  0  0  0  0  0  0  0
   22.4430   16.5840   21.4472 H   0  0  0  0  0  0  0  0  0  0  0  0
   21.0401   15.8470   20.6452 H   0  0  0  0  0  0  0  0  0  0  0  0
   21.0378   16.0672   22.4076 H   0  0  0  0  0  0  0  0  0  0  0  0
  1  2  1  0  0  0  0
  1  3  2  0  0  0  0
  1  4  1  0  0  0  0
  4  5  1  0  0  0  0
  4  6  1  0  0  0  0
  4  7  1  0  0  0  0
  7  8  1  0  0  0  0
  7  9  1  0  0  0  0
  7 10  1  0  0  0  0
 10 11  1  0  0  0  0
 10 12  1  0  0  0  0
 10 13  1  0  0  0  0
 13 14  1  0  0  0  0
 13 15  1  0  0  0  0
 13 16  1  0  0  0  0
 16 17  1  0  0  0  0
 16 18  1  0  0  0  0
 16 19  1  0  0  0  0
 19 20  1  0  0  0  0
 19 21  1  0  0  0  0
 19 22  1  0  0  0  0
M  END
> <VConfSearch Rank>
512

> <Conf_Id>
5

> <Delta U+W>
2.167

> <U+W>
-50.993

> <U>
10.045

> <W>
-61.037

> <W(PB)>
-63.303

> <W(SA)>
2.266

> <Valence>
10.100

> <Coulomb>
-0.883

> <VdW>
0.828

> <VdW6>
-8.177

> <VdW12>
9.005

> <Bond>
0.182

> <Angle>
2.988

> <Pdih>
6.930

> <Idih>
0.001

> <Tether>
0.000

$$$$
VeraChem MOL file


 22 21  0  0  0  0  0  0  0  0999 V2000     
   21.0315   19.3022   25.4617 C   0  0  0  0  0  0  0  0  0  0  0  0
   21.4025   20.4508   25.6016 O   0  5  0  0  0  0  0  0  0  0  0  0
   21.1546   18.4469   26.3160 O   0  0  0  0  0  0  0  0  0  0  0  0
   20.3973   18.9066   24.1331 C   0  0  0  0  0  0  0  0  0  0  0  0
   19.8458   19.7758   23.7575 H   0  0  0  0  0  0  0  0  0  0  0  0
   19.6684   18.1106   24.3267 H   0  0  0  0  0  0  0  0  0  0  0  0
   21.4393   18.4368   23.0869 C   0  0  0  0  0  0  0  0  0  0  0  0
   22.1116   19.2720   22.8464 H   0  0  0  0  0  0  0  0  0  0  0  0
   22.0674   17.6579   23.5409 H   0  0  0  0  0  0  0  0  0  0  0  0
   20.8243   17.8728   21.7814 C   0  0  0  0  0  0  0  0  0  0  0  0
   20.2288   16.9761   22.0014 H   0  0  0  0  0  0  0  0  0  0  0  0
   21.6531   17.5318   21.1460 H   0  0  0  0  0  0  0  0  0  0  0  0
   19.9830   18.8914   20.9712 C   0  0  0  0  0  0  0  0  0  0  0  0
   20.3419   19.9124   21.1601 H   0  0  0  0  0  0  0  0  0  0  0  0
   20.1453   18.7037   19.9010 H   0  0  0  0  0  0  0  0  0  0  0  0
   18.4655   18.7933   21.2511 C   0  0  0  0  0  0  0  0  0  0  0  0
   18.2585   18.9453   22.3171 H   0  0  0  0  0  0  0  0  0  0  0  0
   18.1106   17.7835   21.0030 H   0  0  0  0  0  0  0  0  0  0  0  0
   17.6710   19.8278   20.4289 C   0  0  0  0  0  0  0  0  0  0  0  0
   17.9820   20.8504   20.6796 H   0  0  0  0  0  0  0  0  0  0  0  0
   16.5959   19.7409   20.6329 H   0  0  0  0  0  0  0  0  0  0  0  0
   17.8251   19.6765   19.3524 H   0  0  0  0  0  0  0  0  0  0  0  0
  1  2  1  0  0  0  0
  1  3  2  0  0  0  0
  1  4  1  0  0  0  0
  4  5  1  0  0  0  0
  4  6  1  0  0  0  0
  4  7  1  0  0  0  0
  7  8  1  0  0  0  0
  7  9  1  0  0  0  0
  7 10  1  0  0  0  0
 10 11  1  0  0  0  0
 10 12  1  0  0  0  0
 10 13  1  0  0  0  0
 13 14  1  0  0  0  0
 13 15  1  0  0  0  0
 13 16  1  0  0  0  0
 16 17  1  0  0  0  0
 16 18  1  0  0  0  0
 16 19  1  0  0  0  0
 19 20  1  0  0  0  0
 19 21  1  0  0  0  0
 19 22  1  0  0  0  0
M  END
> <VConfSearch Rank>
513

> <Conf_Id>
6

> <Delta U+W>
2.118

> <U+W>
-51.042

> <U>
10.045

> <W>
-61.086

> <W(PB)>
-63.356

> <W(SA)>
2.270

> <Valence>
10.100

> <Coulomb>
-0.883

> <VdW>
0.828

> <VdW6>
-8.177

> <VdW12>
9.004

> <Bond>
0.182

> <Angle>
2.988

> <Pdih>
6.930

> <Idih>
0.001

> <Tether>
0.000

$$$$
VeraChem MOL file


 22 21  0  0  0  0  0  0  0  0999 V2000     
   21.4365   20.7405   21.6079 C   0  0  0  0  0  0  0  0  0  0  0  0
   21.0717   21.0058   20.4792 O   0  5  0  0  0  0  0  0  0  0  0  0
   22.4262   20.0797   21.8544 O   0  0  0  0  0  0  0  0  0  0  0  0
   20.6516   21.3263   22.7802 C   0  0  0  0  0  0  0  0  0  0  0  0
   20.7462   22.4155   22.7007 H   0  0  0  0  0  0  0  0  0  0  0  0
   21.1414   21.0365   23.7177 H   0  0  0  0  0  0  0  0  0  0  0  0
   19.1433   20.9517   22.8225 C   0  0  0  0  0  0  0  0  0  0  0  0
   18.6278   21.6917   23.4495 H   0  0  0  0  0  0  0  0  0  0  0  0
   18.7050   21.0482   21.8194 H   0  0  0  0  0  0  0  0  0  0  0  0
   18.8386   19.5483   23.4025 C   0  0  0  0  0  0  0  0  0  0  0  0
   17.7507   19.4587   23.5268 H   0  0  0  0  0  0  0  0  0  0  0  0
   19.2722   19.4618   24.4082 H   0  0  0  0  0  0  0  0  0  0  0  0
   19.3351   18.3804   22.5205 C   0  0  0  0  0  0  0  0  0  0  0  0
   18.9851   18.5223   21.4888 H   0  0  0  0  0  0  0  0  0  0  0  0
   20.4319   18.3759   22.4901 H   0  0  0  0  0  0  0  0  0  0  0  0
   18.8437   17.0166   23.0502 C   0  0  0  0  0  0  0  0  0  0  0  0
   17.7454   17.0028   23.0780 H   0  0  0  0  0  0  0  0  0  0  0  0
   19.1915   16.8739   24.0828 H   0  0  0  0  0  0  0  0  0  0  0  0
   19.3478   15.8522   22.1742 C   0  0  0  0  0  0  0  0  0  0  0  0
   18.9882   15.9535   21.1418 H   0  0  0  0  0  0  0  0  0  0  0  0
   18.9906   14.8906   22.5651 H   0  0  0  0  0  0  0  0  0  0  0  0
   20.4452   15.8234   22.1533 H   0  0  0  0  0  0  0  0  0  0  0  0
  1  2  1  0  0  0  0
  1  3  2  0  0  0  0
  1  4  1  0  0  0  0
  4  5  1  0  0  0  0
  4  6  1  0  0  0  0
  4  7  1  0  0  0  0
  7  8  1  0  0  0  0
  7  9  1  0  0  0  0
  7 10  1  0  0  0  0
 10 11  1  0  0  0  0
 10 12  1  0  0  0  0
 10 13  1  0  0  0  0
 13 14  1  0  0  0  0
 13 15  1  0  0  0  0
 13 16  1  0  0  0  0
 16 17  1  0  0  0  0
 16 18  1  0  0  0  0
 16 19  1  0  0  0  0
 19 20  1  0  0  0  0
 19 21  1  0  0  0  0
 19 22  1  0  0  0  0
M  END
> <VConfSearch Rank>
514

> <Conf_Id>
8

> <Delta U+W>
1.886

> <U+W>
-51.274

> <U>
11.237

> <W>
-62.510

> <W(PB)>
-64.777

> <W(SA)>
2.267

> <Valence>
9.029

> <Coulomb>
1.667

> <VdW>
0.540

> <VdW6>
-8.825

> <VdW12>
9.365

> <Bond>
0.186

> <Angle>
3.195

> <Pdih>
5.642

> <Idih>
0.007

> <Tether>
0.000

$$$$
VeraChem MOL file


 22 21  0  0  0  0  0  0  0  0999 V2000     
   21.3287   16.3489   22.1356 C   0  0  0  0  0  0  0  0  0  0  0  0
   20.3106   15.7475   21.8554 O   0  5  0  0  0  0  0  0  0  0  0  0
   22.1549   15.9393   22.9274 O   0  0  0  0  0  0  0  0  0  0  0  0
   21.6014   17.6766   21.4341 C   0  0  0  0  0  0  0  0  0  0  0  0
   20.9301   17.7632   20.5724 H   0  0  0  0  0  0  0  0  0  0  0  0
   22.6189   17.6275   21.0291 H   0  0  0  0  0  0  0  0  0  0  0  0
   21.4763   18.9203   22.3564 C   0  0  0  0  0  0  0  0  0  0  0  0
   22.2184   18.8352   23.1622 H   0  0  0  0  0  0  0  0  0  0  0  0
   21.7439   19.8202   21.7864 H   0  0  0  0  0  0  0  0  0  0  0  0
   20.0764   19.1157   22.9895 C   0  0  0  0  0  0  0  0  0  0  0  0
   20.1356   19.9603   23.6874 H   0  0  0  0  0  0  0  0  0  0  0  0
   19.8150   18.2344   23.5911 H   0  0  0  0  0  0  0  0  0  0  0  0
   18.9613   19.3832   21.9490 C   0  0  0  0  0  0  0  0  0  0  0  0
   19.2283   20.2520   21.3322 H   0  0  0  0  0  0  0  0  0  0  0  0
   18.8879   18.5253   21.2680 H   0  0  0  0  0  0  0  0  0  0  0  0
   17.5692   19.6070   22.5845 C   0  0  0  0  0  0  0  0  0  0  0  0
   17.3066   18.7459   23.2144 H   0  0  0  0  0  0  0  0  0  0  0  0
   16.8192   19.6442   21.7825 H   0  0  0  0  0  0  0  0  0  0  0  0
   17.4731   20.9072   23.4122 C   0  0  0  0  0  0  0  0  0  0  0  0
   18.1180   20.8679   24.2987 H   0  0  0  0  0  0  0  0  0  0  0  0
   16.4436   21.0658   23.7584 H   0  0  0  0  0  0  0  0  0  0  0  0
   17.7652   21.7781   22.8111 H   0  0  0  0  0  0  0  0  0  0  0  0
  1  2  1  0  0  0  0
  1  3  2  0  0  0  0
  1  4  1  0  0  0  0
  4  5  1  0  0  0  0
  4  6  1  0  0  0  0
  4  7  1  0  0  0  0
  7  8  1  0  0  0  0
  7  9  1  0  0  0  0
  7 10  1  0  0  0  0
 10 11  1  0  0  0  0
 10 12  1  0  0  0  0
 10 13  1  0  0  0  0
 13 14  1  0  0  0  0
 13 15  1  0  0  0  0
 13 16  1  0  0  0  0
 16 17  1  0  0  0  0
 16 18  1  0  0  0  0
 16 19  1  0  0  0  0
 19 20  1  0  0  0  0
 19 21  1  0  0  0  0
 19 22  1  0  0  0  0
M  END
> <VConfSearch Rank>
515

> <Conf_Id>
93

> <Delta U+W>
1.836

> <U+W>
-51.323

> <U>
10.427

> <W>
-61.751

> <W(PB)>
-63.980

> <W(SA)>
2.230

> <Valence>
8.446

> <Coulomb>
1.306

> <VdW>
0.676

> <VdW6>
-8.928

> <VdW12>
9.604

> <Bond>
0.209

> <Angle>
3.066

> <Pdih>
5.170

> <Idih>
0.001

> <Tether>
0.000

$$$$
VeraChem MOL file


 22 21  0  0  0  0  0  0  0  0999 V2000     
   18.3837   17.5400   20.1475 C   0  0  0  0  0  0  0  0  0  0  0  0
   17.9032   18.0295   19.1441 O   0  5  0  0  0  0  0  0  0  0  0  0
   17.7389   16.9114   20.9635 O   0  0  0  0  0  0  0  0  0  0  0  0
   19.8840   17.6991   20.3776 C   0  0  0  0  0  0  0  0  0  0  0  0
   20.3886   17.3997   19.4516 H   0  0  0  0  0  0  0  0  0  0  0  0
   20.1994   16.9844   21.1460 H   0  0  0  0  0  0  0  0  0  0  0  0
   20.3197   19.1415   20.7555 C   0  0  0  0  0  0  0  0  0  0  0  0
   21.4138   19.1756   20.8453 H   0  0  0  0  0  0  0  0  0  0  0  0
   20.0582   19.8149   19.9276 H   0  0  0  0  0  0  0  0  0  0  0  0
   19.6842   19.6866   22.0585 C   0  0  0  0  0  0  0  0  0  0  0  0
   18.5897   19.6896   21.9644 H   0  0  0  0  0  0  0  0  0  0  0  0
   19.9879   20.7351   22.1700 H   0  0  0  0  0  0  0  0  0  0  0  0
   20.0944   18.8931   23.3232 C   0  0  0  0  0  0  0  0  0  0  0  0
   19.7666   17.8507   23.2189 H   0  0  0  0  0  0  0  0  0  0  0  0
   21.1892   18.8710   23.4101 H   0  0  0  0  0  0  0  0  0  0  0  0
   19.4824   19.4564   24.6271 C   0  0  0  0  0  0  0  0  0  0  0  0
   19.7016   18.7593   25.4475 H   0  0  0  0  0  0  0  0  0  0  0  0
   18.3880   19.4941   24.5367 H   0  0  0  0  0  0  0  0  0  0  0  0
   20.0227   20.8524   25.0067 C   0  0  0  0  0  0  0  0  0  0  0  0
   19.7230   21.6122   24.2745 H   0  0  0  0  0  0  0  0  0  0  0  0
   21.1187   20.8461   25.0686 H   0  0  0  0  0  0  0  0  0  0  0  0
   19.6311   21.1620   25.9844 H   0  0  0  0  0  0  0  0  0  0  0  0
  1  2  1  0  0  0  0
  1  3  2  0  0  0  0
  1  4  1  0  0  0  0
  4  5  1  0  0  0  0
  4  6  1  0  0  0  0
  4  7  1  0  0  0  0
  7  8  1  0  0  0  0
  7  9  1  0  0  0  0
  7 10  1  0  0  0  0
 10 11  1  0  0  0  0
 10 12  1  0  0  0  0
 10 13  1  0  0  0  0
 13 14  1  0  0  0  0
 13 15  1  0  0  0  0
 13 16  1  0  0  0  0
 16 17  1  0  0  0  0
 16 18  1  0  0  0  0
 16 19  1  0  0  0  0
 19 20  1  0  0  0  0
 19 21  1  0  0  0  0
 19 22  1  0  0  0  0
M  END
> <VConfSearch Rank>
516

> <Conf_Id>
70

> <Delta U+W>
1.803

> <U+W>
-51.356

> <U>
10.428

> <W>
-61.784

> <W(PB)>
-64.014

> <W(SA)>
2.230

> <Valence>
8.445

> <Coulomb>
1.306

> <VdW>
0.676

> <VdW6>
-8.929

> <VdW12>
9.605

> <Bond>
0.209

> <Angle>
3.066

> <Pdih>
5.170

> <Idih>
0.001

> <Tether>
0.000

$$$$
VeraChem MOL file


 22 21  0  0  0  0  0  0  0  0999 V2000     
   19.7539   15.9560   23.6813 C   0  0  0  0  0  0  0  0  0  0  0  0
   19.8933   16.1483   24.8731 O   0  5  0  0  0  0  0  0  0  0  0  0
   20.5104   15.2754   23.0170 O   0  0  0  0  0  0  0  0  0  0  0  0
   18.5504   16.5875   22.9871 C   0  0  0  0  0  0  0  0  0  0  0  0
   17.6761   16.4178   23.6265 H   0  0  0  0  0  0  0  0  0  0  0  0
   18.3660   16.0507   22.0486 H   0  0  0  0  0  0  0  0  0  0  0  0
   18.7060   18.1062   22.7147 C   0  0  0  0  0  0  0  0  0  0  0  0
   17.7529   18.5006   22.3375 H   0  0  0  0  0  0  0  0  0  0  0  0
   18.9086   18.6187   23.6645 H   0  0  0  0  0  0  0  0  0  0  0  0
   19.8262   18.4124   21.6919 C   0  0  0  0  0  0  0  0  0  0  0  0
   19.6501   17.8218   20.7825 H   0  0  0  0  0  0  0  0  0  0  0  0
   20.7958   18.0838   22.0908 H   0  0  0  0  0  0  0  0  0  0  0  0
   19.9101   19.9064   21.2990 C   0  0  0  0  0  0  0  0  0  0  0  0
   20.6412   20.0116   20.4858 H   0  0  0  0  0  0  0  0  0  0  0  0
   18.9440   20.2353   20.8925 H   0  0  0  0  0  0  0  0  0  0  0  0
   20.3247   20.8279   22.4682 C   0  0  0  0  0  0  0  0  0  0  0  0
   21.2644   20.4674   22.9088 H   0  0  0  0  0  0  0  0  0  0  0  0
   19.5662   20.7971   23.2615 H   0  0  0  0  0  0  0  0  0  0  0  0
   20.5039   22.2869   22.0022 C   0  0  0  0  0  0  0  0  0  0  0  0
   21.2846   22.3612   21.2338 H   0  0  0  0  0  0  0  0  0  0  0  0
   20.7949   22.9287   22.8439 H   0  0  0  0  0  0  0  0  0  0  0  0
   19.5699   22.6820   21.5816 H   0  0  0  0  0  0  0  0  0  0  0  0
  1  2  1  0  0  0  0
  1  3  2  0  0  0  0
  1  4  1  0  0  0  0
  4  5  1  0  0  0  0
  4  6  1  0  0  0  0
  4  7  1  0  0  0  0
  7  8  1  0  0  0  0
  7  9  1  0  0  0  0
  7 10  1  0  0  0  0
 10 11  1  0  0  0  0
 10 12  1  0  0  0  0
 10 13  1  0  0  0  0
 13 14  1  0  0  0  0
 13 15  1  0  0  0  0
 13 16  1  0  0  0  0
 16 17  1  0  0  0  0
 16 18  1  0  0  0  0
 16 19  1  0  0  0  0
 19 20  1  0  0  0  0
 19 21  1  0  0  0  0
 19 22  1  0  0  0  0
M  END
> <VConfSearch Rank>
517

> <Conf_Id>
85

> <Delta U+W>
0.707

> <U+W>
-52.452

> <U>
8.925

> <W>
-61.378

> <W(PB)>
-63.661

> <W(SA)>
2.283

> <Valence>
7.881

> <Coulomb>
0.349

> <VdW>
0.695

> <VdW6>
-8.049

> <VdW12>
8.743

> <Bond>
0.156

> <Angle>
2.660

> <Pdih>
5.064

> <Idih>
0.001

> <Tether>
0.000

$$$$
VeraChem MOL file


 22 21  0  0  0  0  0  0  0  0999 V2000     
   19.4082   19.8481   25.5413 C   0  0  0  0  0  0  0  0  0  0  0  0
   18.7023   19.0808   26.1658 O   0  5  0  0  0  0  0  0  0  0  0  0
   20.4616   20.2851   25.9611 O   0  0  0  0  0  0  0  0  0  0  0  0
   18.9365   20.3073   24.1643 C   0  0  0  0  0  0  0  0  0  0  0  0
   19.0711   21.3944   24.1187 H   0  0  0  0  0  0  0  0  0  0  0  0
   17.8597   20.1169   24.0806 H   0  0  0  0  0  0  0  0  0  0  0  0
   19.6910   19.6433   22.9829 C   0  0  0  0  0  0  0  0  0  0  0  0
   19.3938   20.1488   22.0555 H   0  0  0  0  0  0  0  0  0  0  0  0
   20.7715   19.8015   23.1046 H   0  0  0  0  0  0  0  0  0  0  0  0
   19.3910   18.1314   22.8597 C   0  0  0  0  0  0  0  0  0  0  0  0
   18.3218   17.9873   22.6528 H   0  0  0  0  0  0  0  0  0  0  0  0
   19.5842   17.6453   23.8258 H   0  0  0  0  0  0  0  0  0  0  0  0
   20.2279   17.4027   21.7785 C   0  0  0  0  0  0  0  0  0  0  0  0
   21.2965   17.4614   22.0267 H   0  0  0  0  0  0  0  0  0  0  0  0
   19.9695   16.3359   21.8251 H   0  0  0  0  0  0  0  0  0  0  0  0
   19.9855   17.8940   20.3294 C   0  0  0  0  0  0  0  0  0  0  0  0
   18.9703   18.3022   20.2300 H   0  0  0  0  0  0  0  0  0  0  0  0
   20.0344   17.0296   19.6529 H   0  0  0  0  0  0  0  0  0  0  0  0
   21.0288   18.9301   19.8552 C   0  0  0  0  0  0  0  0  0  0  0  0
   21.0241   19.8302   20.4804 H   0  0  0  0  0  0  0  0  0  0  0  0
   20.8216   19.2384   18.8223 H   0  0  0  0  0  0  0  0  0  0  0  0
   22.0406   18.5051   19.8819 H   0  0  0  0  0  0  0  0  0  0  0  0
  1  2  1  0  0  0  0
  1  3  2  0  0  0  0
  1  4  1  0  0  0  0
  4  5  1  0  0  0  0
  4  6  1  0  0  0  0
  4  7  1  0  0  0  0
  7  8  1  0  0  0  0
  7  9  1  0  0  0  0
  7 10  1  0  0  0  0
 10 11  1  0  0  0  0
 10 12  1  0  0  0  0
 10 13  1  0  0  0  0
 13 14  1  0  0  0  0
 13 15  1  0  0  0  0
 13 16  1  0  0  0  0
 16 17  1  0  0  0  0
 16 18  1  0  0  0  0
 16 19  1  0  0  0  0
 19 20  1  0  0  0  0
 19 21  1  0  0  0  0
 19 22  1  0  0  0  0
M  END
> <VConfSearch Rank>
518

> <Conf_Id>
82

> <Delta U+W>
3.438

> <U+W>
-49.721

> <U>
11.773

> <W>
-61.495

> <W(PB)>
-63.749

> <W(SA)>
2.254

> <Valence>
10.419

> <Coulomb>
0.565

> <VdW>
0.789

> <VdW6>
-8.847

> <VdW12>
9.636

> <Bond>
0.200

> <Angle>
3.187

> <Pdih>
7.032

> <Idih>
0.001

> <Tether>
0.000

$$$$
VeraChem MOL file


 22 21  0  0  0  0  0  0  0  0999 V2000     
   20.7731   22.1255   22.5498 C   0  0  0  0  0  0  0  0  0  0  0  0
   19.9138   22.7130   23.1771 O   0  5  0  0  0  0  0  0  0  0  0  0
   21.9643   22.2840   22.7313 O   0  0  0  0  0  0  0  0  0  0  0  0
   20.3302   21.1537   21.4595 C   0  0  0  0  0  0  0  0  0  0  0  0
   21.1736   20.9802   20.7802 H   0  0  0  0  0  0  0  0  0  0  0  0
   19.5491   21.6531   20.8744 H   0  0  0  0  0  0  0  0  0  0  0  0
   19.7893   19.8031   21.9971 C   0  0  0  0  0  0  0  0  0  0  0  0
   18.9767   19.9937   22.7117 H   0  0  0  0  0  0  0  0  0  0  0  0
   19.3556   19.2458   21.1572 H   0  0  0  0  0  0  0  0  0  0  0  0
   20.8885   18.9457   22.6662 C   0  0  0  0  0  0  0  0  0  0  0  0
   21.3968   19.5456   23.4334 H   0  0  0  0  0  0  0  0  0  0  0  0
   21.6540   18.6881   21.9217 H   0  0  0  0  0  0  0  0  0  0  0  0
   20.3652   17.6506   23.3366 C   0  0  0  0  0  0  0  0  0  0  0  0
   21.2211   17.1614   23.8213 H   0  0  0  0  0  0  0  0  0  0  0  0
   19.6674   17.9017   24.1471 H   0  0  0  0  0  0  0  0  0  0  0  0
   19.7160   16.6334   22.3652 C   0  0  0  0  0  0  0  0  0  0  0  0
   19.9737   15.6179   22.6964 H   0  0  0  0  0  0  0  0  0  0  0  0
   20.1413   16.7430   21.3581 H   0  0  0  0  0  0  0  0  0  0  0  0
   18.1756   16.7407   22.3112 C   0  0  0  0  0  0  0  0  0  0  0  0
   17.7372   16.5595   23.3012 H   0  0  0  0  0  0  0  0  0  0  0  0
   17.7629   15.9947   21.6199 H   0  0  0  0  0  0  0  0  0  0  0  0
   17.8466   17.7294   21.9720 H   0  0  0  0  0  0  0  0  0  0  0  0
  1  2  1  0  0  0  0
  1  3  2  0  0  0  0
  1  4  1  0  0  0  0
  4  5  1  0  0  0  0
  4  6  1  0  0  0  0
  4  7  1  0  0  0  0
  7  8  1  0  0  0  0
  7  9  1  0  0  0  0
  7 10  1  0  0  0  0
 10 11  1  0  0  0  0
 10 12  1  0  0  0  0
 10 13  1  0  0  0  0
 13 14  1  0  0  0  0
 13 15  1  0  0  0  0
 13 16  1  0  0  0  0
 16 17  1  0  0  0  0
 16 18  1  0  0  0  0
 16 19  1  0  0  0  0
 19 20  1  0  0  0  0
 19 21  1  0  0  0  0
 19 22  1  0  0  0  0
M  END
> <VConfSearch Rank>
519

> <Conf_Id>
94

> <Delta U+W>
3.471

> <U+W>
-49.688

> <U>
11.773

> <W>
-61.461

> <W(PB)>
-63.710

> <W(SA)>
2.248

> <Valence>
10.419

> <Coulomb>
0.566

> <VdW>
0.789

> <VdW6>
-8.847

> <VdW12>
9.636

> <Bond>
0.200

> <Angle>
3.187

> <Pdih>
7.032

> <Idih>
0.001

> <Tether>
0.000

$$$$
VeraChem MOL file


 22 21  0  0  0  0  0  0  0  0999 V2000     
   22.1559   19.3104   24.7172 C   0  0  0  0  0  0  0  0  0  0  0  0
   23.3335   19.6068   24.6696 O   0  5  0  0  0  0  0  0  0  0  0  0
   21.6838   18.5624   25.5504 O   0  0  0  0  0  0  0  0  0  0  0  0
   21.2236   19.8940   23.6617 C   0  0  0  0  0  0  0  0  0  0  0  0
   21.5944   20.8901   23.3923 H   0  0  0  0  0  0  0  0  0  0  0  0
   20.2385   20.0268   24.1233 H   0  0  0  0  0  0  0  0  0  0  0  0
   21.1161   19.0031   22.3971 C   0  0  0  0  0  0  0  0  0  0  0  0
   22.1268   18.8215   22.0064 H   0  0  0  0  0  0  0  0  0  0  0  0
   20.7162   18.0186   22.6740 H   0  0  0  0  0  0  0  0  0  0  0  0
   20.2564   19.6297   21.2708 C   0  0  0  0  0  0  0  0  0  0  0  0
   20.2751   18.9641   20.3978 H   0  0  0  0  0  0  0  0  0  0  0  0
   20.7302   20.5644   20.9417 H   0  0  0  0  0  0  0  0  0  0  0  0
   18.7833   19.9301   21.6539 C   0  0  0  0  0  0  0  0  0  0  0  0
   18.7596   20.7190   22.4170 H   0  0  0  0  0  0  0  0  0  0  0  0
   18.2726   20.3507   20.7771 H   0  0  0  0  0  0  0  0  0  0  0  0
   17.9741   18.7129   22.1654 C   0  0  0  0  0  0  0  0  0  0  0  0
   16.9624   19.0505   22.4287 H   0  0  0  0  0  0  0  0  0  0  0  0
   18.4168   18.3275   23.0936 H   0  0  0  0  0  0  0  0  0  0  0  0
   17.8638   17.5744   21.1284 C   0  0  0  0  0  0  0  0  0  0  0  0
   17.4381   17.9418   20.1856 H   0  0  0  0  0  0  0  0  0  0  0  0
   17.2140   16.7737   21.5043 H   0  0  0  0  0  0  0  0  0  0  0  0
   18.8457   17.1337   20.9146 H   0  0  0  0  0  0  0  0  0  0  0  0
  1  2  1  0  0  0  0
  1  3  2  0  0  0  0
  1  4  1  0  0  0  0
  4  5  1  0  0  0  0
  4  6  1  0  0  0  0
  4  7  1  0  0  0  0
  7  8  1  0  0  0  0
  7  9  1  0  0  0  0
  7 10  1  0  0  0  0
 10 11  1  0  0  0  0
 10 12  1  0  0  0  0
 10 13  1  0  0  0  0
 13 14  1  0  0  0  0
 13 15  1  0  0  0  0
 13 16  1  0  0  0  0
 16 17  1  0  0  0  0
 16 18  1  0  0  0  0
 16 19  1  0  0  0  0
 19 20  1  0  0  0  0
 19 21  1  0  0  0  0
 19 22  1  0  0  0  0
M  END
> <VConfSearch Rank>
520

> <Conf_Id>
56

> <Delta U+W>
0.853

> <U+W>
-52.307

> <U>
8.874

> <W>
-61.181

> <W(PB)>
-63.413

> <W(SA)>
2.232

> <Valence>
8.479

> <Coulomb>
-0.357

> <VdW>
0.753

> <VdW6>
-9.081

> <VdW12>
9.833

> <Bond>
0.221

> <Angle>
3.208

> <Pdih>
5.050

> <Idih>
0.000

> <Tether>
0.000

$$$$
VeraChem MOL file


 22 21  0  0  0  0  0  0  0  0999 V2000     
   18.1290   15.4511   21.0081 C   0  0  0  0  0  0  0  0  0  0  0  0
   18.9131   15.2970   20.0917 O   0  5  0  0  0  0  0  0  0  0  0  0
   17.2397   14.6626   21.2601 O   0  0  0  0  0  0  0  0  0  0  0  0
   18.2414   16.6860   21.9036 C   0  0  0  0  0  0  0  0  0  0  0  0
   18.3645   16.3326   22.9340 H   0  0  0  0  0  0  0  0  0  0  0  0
   17.2805   17.2120   21.8573 H   0  0  0  0  0  0  0  0  0  0  0  0
   19.3919   17.6632   21.5434 C   0  0  0  0  0  0  0  0  0  0  0  0
   20.3509   17.1284   21.5855 H   0  0  0  0  0  0  0  0  0  0  0  0
   19.2659   18.0087   20.5079 H   0  0  0  0  0  0  0  0  0  0  0  0
   19.4325   18.8784   22.4953 C   0  0  0  0  0  0  0  0  0  0  0  0
   19.5586   18.5304   23.5298 H   0  0  0  0  0  0  0  0  0  0  0  0
   18.4727   19.4113   22.4515 H   0  0  0  0  0  0  0  0  0  0  0  0
   20.5777   19.8491   22.1351 C   0  0  0  0  0  0  0  0  0  0  0  0
   21.5377   19.3165   22.1787 H   0  0  0  0  0  0  0  0  0  0  0  0
   20.4520   20.1973   21.1007 H   0  0  0  0  0  0  0  0  0  0  0  0
   20.6188   21.0636   23.0861 C   0  0  0  0  0  0  0  0  0  0  0  0
   20.7465   20.7192   24.1217 H   0  0  0  0  0  0  0  0  0  0  0  0
   19.6607   21.6000   23.0437 H   0  0  0  0  0  0  0  0  0  0  0  0
   21.7636   22.0306   22.7230 C   0  0  0  0  0  0  0  0  0  0  0  0
   22.7376   21.5280   22.7879 H   0  0  0  0  0  0  0  0  0  0  0  0
   21.7782   22.8877   23.4088 H   0  0  0  0  0  0  0  0  0  0  0  0
   21.6437   22.4155   21.7018 H   0  0  0  0  0  0  0  0  0  0  0  0
  1  2  1  0  0  0  0
  1  3  2  0  0  0  0
  1  4  1  0  0  0  0
  4  5  1  0  0  0  0
  4  6  1  0  0  0  0
  4  7  1  0  0  0  0
  7  8  1  0  0  0  0
  7  9  1  0  0  0  0
  7 10  1  0  0  0  0
 10 11  1  0  0  0  0
 10 12  1  0  0  0  0
 10 13  1  0  0  0  0
 13 14  1  0  0  0  0
 13 15  1  0  0  0  0
 13 16  1  0  0  0  0
 16 17  1  0  0  0  0
 16 18  1  0  0  0  0
 16 19  1  0  0  0  0
 19 20  1  0  0  0  0
 19 21  1  0  0  0  0
 19 22  1  0  0  0  0
M  END
> <VConfSearch Rank>
521

> <Conf_Id>
0

> <Delta U+W>
0.000

> <U+W>
-53.159

> <U>
6.763

> <W>
-59.922

> <W(PB)>
-62.256

> <W(SA)>
2.334

> <Valence>
7.600

> <Coulomb>
-2.139

> <VdW>
1.302

> <VdW6>
-6.786

> <VdW12>
8.088

> <Bond>
0.134

> <Angle>
2.720

> <Pdih>
4.746

> <Idih>
0.000

> <Tether>
0.000

$$$$
VeraChem MOL file


 22 21  0  0  0  0  0  0  0  0999 V2000     
   20.5893   18.2862   26.0507 C   0  0  0  0  0  0  0  0  0  0  0  0
   20.4579   17.1264   26.3886 O   0  5  0  0  0  0  0  0  0  0  0  0
   20.3656   19.2299   26.7827 O   0  0  0  0  0  0  0  0  0  0  0  0
   21.0382   18.5735   24.6224 C   0  0  0  0  0  0  0  0  0  0  0  0
   21.7057   17.7632   24.3055 H   0  0  0  0  0  0  0  0  0  0  0  0
   21.6300   19.4967   24.6304 H   0  0  0  0  0  0  0  0  0  0  0  0
   19.8531   18.7068   23.6345 C   0  0  0  0  0  0  0  0  0  0  0  0
   19.2633   17.7797   23.6480 H   0  0  0  0  0  0  0  0  0  0  0  0
   19.1876   19.5132   23.9729 H   0  0  0  0  0  0  0  0  0  0  0  0
   20.3335   18.9974   22.1963 C   0  0  0  0  0  0  0  0  0  0  0  0
   20.9994   18.1901   21.8615 H   0  0  0  0  0  0  0  0  0  0  0  0
   20.9237   19.9240   22.1865 H   0  0  0  0  0  0  0  0  0  0  0  0
   19.1500   19.1298   21.2138 C   0  0  0  0  0  0  0  0  0  0  0  0
   18.5595   18.2034   21.2233 H   0  0  0  0  0  0  0  0  0  0  0  0
   18.4838   19.9370   21.5482 H   0  0  0  0  0  0  0  0  0  0  0  0
   19.6294   19.4202   19.7761 C   0  0  0  0  0  0  0  0  0  0  0  0
   20.2945   18.6138   19.4373 H   0  0  0  0  0  0  0  0  0  0  0  0
   20.2188   20.3474   19.7623 H   0  0  0  0  0  0  0  0  0  0  0  0
   18.4446   19.5518   18.7982 C   0  0  0  0  0  0  0  0  0  0  0  0
   17.7790   20.3726   19.0957 H   0  0  0  0  0  0  0  0  0  0  0  0
   17.8552   18.6260   18.7685 H   0  0  0  0  0  0  0  0  0  0  0  0
   18.8034   19.7579   17.7814 H   0  0  0  0  0  0  0  0  0  0  0  0
  1  2  1  0  0  0  0
  1  3  2  0  0  0  0
  1  4  1  0  0  0  0
  4  5  1  0  0  0  0
  4  6  1  0  0  0  0
  4  7  1  0  0  0  0
  7  8  1  0  0  0  0
  7  9  1  0  0  0  0
  7 10  1  0  0  0  0
 10 11  1  0  0  0  0
 10 12  1  0  0  0  0
 10 13  1  0  0  0  0
 13 14  1  0  0  0  0
 13 15  1  0  0  0  0
 13 16  1  0  0  0  0
 16 17  1  0  0  0  0
 16 18  1  0  0  0  0
 16 19  1  0  0  0  0
 19 20  1  0  0  0  0
 19 21  1  0  0  0  0
 19 22  1  0  0  0  0
M  END
> <VConfSearch Rank>
522

> <Conf_Id>
10

> <Delta U+W>
-1.291

> <U+W>
-54.451

> <U>
5.779

> <W>
-60.230

> <W(PB)>
-62.557

> <W(SA)>
2.328

> <Valence>
7.101

> <Coulomb>
-2.079

> <VdW>
0.757

> <VdW6>
-6.496

> <VdW12>
7.253

> <Bond>
0.100

> <Angle>
2.262

> <Pdih>
4.738

> <Idih>
0.001

> <Tether>
0.000

$$$$
VeraChem MOL file


 22 21  0  0  0  0  0  0  0  0999 V2000     
   22.2973   21.5208   20.5912 C   0  0  0  0  0  0  0  0  0  0  0  0
   23.3462   21.6259   21.1955 O   0  5  0  0  0  0  0  0  0  0  0  0
   22.1791   21.7486   19.4036 O   0  0  0  0  0  0  0  0  0  0  0  0
   21.0660   21.0571   21.3614 C   0  0  0  0  0  0  0  0  0  0  0  0
   20.1849   21.5318   20.9132 H   0  0  0  0  0  0  0  0  0  0  0  0
   21.1471   21.4295   22.3897 H   0  0  0  0  0  0  0  0  0  0  0  0
   20.9011   19.5173   21.3621 C   0  0  0  0  0  0  0  0  0  0  0  0
   20.8349   19.1593   20.3253 H   0  0  0  0  0  0  0  0  0  0  0  0
   21.7963   19.0565   21.8023 H   0  0  0  0  0  0  0  0  0  0  0  0
   19.6481   19.0737   22.1479 C   0  0  0  0  0  0  0  0  0  0  0  0
   18.7546   19.5340   21.7044 H   0  0  0  0  0  0  0  0  0  0  0  0
   19.7211   19.4423   23.1794 H   0  0  0  0  0  0  0  0  0  0  0  0
   19.4900   17.5357   22.1487 C   0  0  0  0  0  0  0  0  0  0  0  0
   19.4896   17.1759   21.1107 H   0  0  0  0  0  0  0  0  0  0  0  0
   20.3590   17.0744   22.6375 H   0  0  0  0  0  0  0  0  0  0  0  0
   18.1924   17.0514   22.8365 C   0  0  0  0  0  0  0  0  0  0  0  0
   18.0999   15.9664   22.6902 H   0  0  0  0  0  0  0  0  0  0  0  0
   17.3205   17.5059   22.3461 H   0  0  0  0  0  0  0  0  0  0  0  0
   18.1533   17.3538   24.3501 C   0  0  0  0  0  0  0  0  0  0  0  0
   17.2573   16.9135   24.8064 H   0  0  0  0  0  0  0  0  0  0  0  0
   18.1271   18.4336   24.5426 H   0  0  0  0  0  0  0  0  0  0  0  0
   19.0318   16.9343   24.8575 H   0  0  0  0  0  0  0  0  0  0  0  0
  1  2  1  0  0  0  0
  1  3  2  0  0  0  0
  1  4  1  0  0  0  0
  4  5  1  0  0  0  0
  4  6  1  0  0  0  0
  4  7  1  0  0  0  0
  7  8  1  0  0  0  0
  7  9  1  0  0  0  0
  7 10  1  0  0  0  0
 10 11  1  0  0  0  0
 10 12  1  0  0  0  0
 10 13  1  0  0  0  0
 13 14  1  0  0  0  0
 13 15  1  0  0  0  0
 13 16  1  0  0  0  0
 16 17  1  0  0  0  0
 16 18  1  0  0  0  0
 16 19  1  0  0  0  0
 19 20  1  0  0  0  0
 19 21  1  0  0  0  0
 19 22  1  0  0  0  0
M  END
> <VConfSearch Rank>
523

> <Conf_Id>
37

> <Delta U+W>
-0.345

> <U+W>
-53.504

> <U>
6.751

> <W>
-60.255

> <W(PB)>
-62.592

> <W(SA)>
2.336

> <Valence>
7.602

> <Coulomb>
-1.744

> <VdW>
0.894

> <VdW6>
-7.110

> <VdW12>
8.004

> <Bond>
0.131

> <Angle>
2.489

> <Pdih>
4.982

> <Idih>
0.001

> <Tether>
0.000

$$$$
VeraChem MOL file


 22 21  0  0  0  0  0  0  0  0999 V2000     
   20.2333   18.4583   26.0389 C   0  0  0  0  0  0  0  0  0  0  0  0
   19.3020   17.8569   26.5363 O   0  5  0  0  0  0  0  0  0  0  0  0
   20.9354   19.2378   26.6519 O   0  0  0  0  0  0  0  0  0  0  0  0
   20.5235   18.2390   24.5584 C   0  0  0  0  0  0  0  0  0  0  0  0
   20.2576   17.2048   24.3086 H   0  0  0  0  0  0  0  0  0  0  0  0
   21.6043   18.3422   24.4040 H   0  0  0  0  0  0  0  0  0  0  0  0
   19.7563   19.2241   23.6424 C   0  0  0  0  0  0  0  0  0  0  0  0
   18.6768   19.1172   23.8178 H   0  0  0  0  0  0  0  0  0  0  0  0
   20.0233   20.2548   23.9144 H   0  0  0  0  0  0  0  0  0  0  0  0
   20.0672   18.9817   22.1494 C   0  0  0  0  0  0  0  0  0  0  0  0
   19.8038   17.9479   21.8904 H   0  0  0  0  0  0  0  0  0  0  0  0
   21.1465   19.0915   21.9767 H   0  0  0  0  0  0  0  0  0  0  0  0
   19.2960   19.9650   21.2391 C   0  0  0  0  0  0  0  0  0  0  0  0
   18.2148   19.8224   21.3721 H   0  0  0  0  0  0  0  0  0  0  0  0
   19.5156   20.9935   21.5570 H   0  0  0  0  0  0  0  0  0  0  0  0
   19.6553   19.8270   19.7414 C   0  0  0  0  0  0  0  0  0  0  0  0
   20.7353   19.9754   19.6036 H   0  0  0  0  0  0  0  0  0  0  0  0
   19.1579   20.6326   19.1839 H   0  0  0  0  0  0  0  0  0  0  0  0
   19.2358   18.4705   19.1345 C   0  0  0  0  0  0  0  0  0  0  0  0
   18.1644   18.2864   19.2870 H   0  0  0  0  0  0  0  0  0  0  0  0
   19.7955   17.6405   19.5833 H   0  0  0  0  0  0  0  0  0  0  0  0
   19.4307   18.4567   18.0544 H   0  0  0  0  0  0  0  0  0  0  0  0
  1  2  1  0  0  0  0
  1  3  2  0  0  0  0
  1  4  1  0  0  0  0
  4  5  1  0  0  0  0
  4  6  1  0  0  0  0
  4  7  1  0  0  0  0
  7  8  1  0  0  0  0
  7  9  1  0  0  0  0
  7 10  1  0  0  0  0
 10 11  1  0  0  0  0
 10 12  1  0  0  0  0
 10 13  1  0  0  0  0
 13 14  1  0  0  0  0
 13 15  1  0  0  0  0
 13 16  1  0  0  0  0
 16 17  1  0  0  0  0
 16 18  1  0  0  0  0
 16 19  1  0  0  0  0
 19 20  1  0  0  0  0
 19 21  1  0  0  0  0
 19 22  1  0  0  0  0
M  END
> <VConfSearch Rank>
524

> <Conf_Id>
38

> <Delta U+W>
-0.439

> <U+W>
-53.598

> <U>
6.751

> <W>
-60.350

> <W(PB)>
-62.659

> <W(SA)>
2.309

> <Valence>
7.602

> <Coulomb>
-1.744

> <VdW>
0.893

> <VdW6>
-7.110

> <VdW12>
8.004

> <Bond>
0.131

> <Angle>
2.489

> <Pdih>
4.981

> <Idih>
0.001

> <Tether>
0.000

$$$$
VeraChem MOL file


 22 21  0  0  0  0  0  0  0  0999 V2000     
   18.8718   15.4657   23.0150 C   0  0  0  0  0  0  0  0  0  0  0  0
   17.7233   15.1152   23.2009 O   0  5  0  0  0  0  0  0  0  0  0  0
   19.8377   14.8380   23.4019 O   0  0  0  0  0  0  0  0  0  0  0  0
   19.1138   16.7768   22.2756 C   0  0  0  0  0  0  0  0  0  0  0  0
   18.3009   16.9143   21.5525 H   0  0  0  0  0  0  0  0  0  0  0  0
   20.0428   16.6699   21.7047 H   0  0  0  0  0  0  0  0  0  0  0  0
   19.1935   17.9972   23.2294 C   0  0  0  0  0  0  0  0  0  0  0  0
   18.2888   18.0150   23.8529 H   0  0  0  0  0  0  0  0  0  0  0  0
   20.0411   17.8715   23.9173 H   0  0  0  0  0  0  0  0  0  0  0  0
   19.3132   19.3535   22.4940 C   0  0  0  0  0  0  0  0  0  0  0  0
   19.2190   20.1532   23.2396 H   0  0  0  0  0  0  0  0  0  0  0  0
   18.4690   19.4722   21.8012 H   0  0  0  0  0  0  0  0  0  0  0  0
   20.6473   19.5213   21.7260 C   0  0  0  0  0  0  0  0  0  0  0  0
   21.4914   19.4008   22.4185 H   0  0  0  0  0  0  0  0  0  0  0  0
   20.7415   18.7240   20.9780 H   0  0  0  0  0  0  0  0  0  0  0  0
   20.7684   20.8788   20.9947 C   0  0  0  0  0  0  0  0  0  0  0  0
   19.9195   21.0082   20.3092 H   0  0  0  0  0  0  0  0  0  0  0  0
   21.6717   20.8615   20.3694 H   0  0  0  0  0  0  0  0  0  0  0  0
   20.8530   22.0871   21.9525 C   0  0  0  0  0  0  0  0  0  0  0  0
   19.9206   22.2201   22.5150 H   0  0  0  0  0  0  0  0  0  0  0  0
   21.0343   23.0113   21.3885 H   0  0  0  0  0  0  0  0  0  0  0  0
   21.6744   21.9630   22.6702 H   0  0  0  0  0  0  0  0  0  0  0  0
  1  2  1  0  0  0  0
  1  3  2  0  0  0  0
  1  4  1  0  0  0  0
  4  5  1  0  0  0  0
  4  6  1  0  0  0  0
  4  7  1  0  0  0  0
  7  8  1  0  0  0  0
  7  9  1  0  0  0  0
  7 10  1  0  0  0  0
 10 11  1  0  0  0  0
 10 12  1  0  0  0  0
 10 13  1  0  0  0  0
 13 14  1  0  0  0  0
 13 15  1  0  0  0  0
 13 16  1  0  0  0  0
 16 17  1  0  0  0  0
 16 18  1  0  0  0  0
 16 19  1  0  0  0  0
 19 20  1  0  0  0  0
 19 21  1  0  0  0  0
 19 22  1  0  0  0  0
M  END
> <VConfSearch Rank>
525

> <Conf_Id>
60

> <Delta U+W>
0.386

> <U+W>
-52.773

> <U>
7.689

> <W>
-60.463

> <W(PB)>
-62.772

> <W(SA)>
2.309

> <Valence>
8.197

> <Coulomb>
-1.561

> <VdW>
1.053

> <VdW6>
-7.737

> <VdW12>
8.790

> <Bond>
0.181

> <Angle>
2.780

> <Pdih>
5.235

> <Idih>
0.001

> <Tether>
0.000

$$$$
VeraChem MOL file


 22 21  0  0  0  0  0  0  0  0999 V2000     
   19.0775   15.9674   24.4216 C   0  0  0  0  0  0  0  0  0  0  0  0
   18.7926   16.3402   25.5425 O   0  5  0  0  0  0  0  0  0  0  0  0
   19.4123   14.8299   24.1559 O   0  0  0  0  0  0  0  0  0  0  0  0
   19.0346   16.9882   23.2901 C   0  0  0  0  0  0  0  0  0  0  0  0
   18.2300   17.6978   23.5130 H   0  0  0  0  0  0  0  0  0  0  0  0
   18.7593   16.4624   22.3681 H   0  0  0  0  0  0  0  0  0  0  0  0
   20.3834   17.7302   23.1006 C   0  0  0  0  0  0  0  0  0  0  0  0
   20.6248   18.2929   24.0130 H   0  0  0  0  0  0  0  0  0  0  0  0
   21.1802   16.9837   22.9773 H   0  0  0  0  0  0  0  0  0  0  0  0
   20.4033   18.6802   21.8793 C   0  0  0  0  0  0  0  0  0  0  0  0
   20.1536   18.1163   20.9703 H   0  0  0  0  0  0  0  0  0  0  0  0
   21.4307   19.0429   21.7483 H   0  0  0  0  0  0  0  0  0  0  0  0
   19.4460   19.8888   22.0242 C   0  0  0  0  0  0  0  0  0  0  0  0
   18.4178   19.5276   22.1521 H   0  0  0  0  0  0  0  0  0  0  0  0
   19.6947   20.4516   22.9342 H   0  0  0  0  0  0  0  0  0  0  0  0
   19.4697   20.8405   20.8052 C   0  0  0  0  0  0  0  0  0  0  0  0
   18.6719   21.5862   20.9263 H   0  0  0  0  0  0  0  0  0  0  0  0
   19.2327   20.2789   19.8910 H   0  0  0  0  0  0  0  0  0  0  0  0
   20.8142   21.5792   20.6285 C   0  0  0  0  0  0  0  0  0  0  0  0
   21.0886   22.1202   21.5434 H   0  0  0  0  0  0  0  0  0  0  0  0
   20.7458   22.3096   19.8120 H   0  0  0  0  0  0  0  0  0  0  0  0
   21.6258   20.8832   20.3828 H   0  0  0  0  0  0  0  0  0  0  0  0
  1  2  1  0  0  0  0
  1  3  2  0  0  0  0
  1  4  1  0  0  0  0
  4  5  1  0  0  0  0
  4  6  1  0  0  0  0
  4  7  1  0  0  0  0
  7  8  1  0  0  0  0
  7  9  1  0  0  0  0
  7 10  1  0  0  0  0
 10 11  1  0  0  0  0
 10 12  1  0  0  0  0
 10 13  1  0  0  0  0
 13 14  1  0  0  0  0
 13 15  1  0  0  0  0
 13 16  1  0  0  0  0
 16 17  1  0  0  0  0
 16 18  1  0  0  0  0
 16 19  1  0  0  0  0
 19 20  1  0  0  0  0
 19 21  1  0  0  0  0
 19 22  1  0  0  0  0
M  END
> <VConfSearch Rank>
526

> <Conf_Id>
28

> <Delta U+W>
0.351

> <U+W>
-52.808

> <U>
7.689

> <W>
-60.498

> <W(PB)>
-62.768

> <W(SA)>
2.270

> <Valence>
8.197

> <Coulomb>
-1.561

> <VdW>
1.053

> <VdW6>
-7.737

> <VdW12>
8.791

> <Bond>
0.181

> <Angle>
2.780

> <Pdih>
5.235

> <Idih>
0.001

> <Tether>
0.000

$$$$
VeraChem MOL file


 22 21  0  0  0  0  0  0  0  0999 V2000     
   22.7568   16.7866   23.4638 C   0  0  0  0  0  0  0  0  0  0  0  0
   23.6262   16.5261   22.6559 O   0  5  0  0  0  0  0  0  0  0  0  0
   22.9808   17.0960   24.6173 O   0  0  0  0  0  0  0  0  0  0  0  0
   21.3055   16.7422   22.9990 C   0  0  0  0  0  0  0  0  0  0  0  0
   20.6847   16.4340   23.8489 H   0  0  0  0  0  0  0  0  0  0  0  0
   21.2170   15.9625   22.2331 H   0  0  0  0  0  0  0  0  0  0  0  0
   20.8107   18.0995   22.4410 C   0  0  0  0  0  0  0  0  0  0  0  0
   20.9281   18.8662   23.2180 H   0  0  0  0  0  0  0  0  0  0  0  0
   21.4475   18.3983   21.5969 H   0  0  0  0  0  0  0  0  0  0  0  0
   19.3359   18.0272   21.9819 C   0  0  0  0  0  0  0  0  0  0  0  0
   18.6929   17.7800   22.8377 H   0  0  0  0  0  0  0  0  0  0  0  0
   19.2260   17.2041   21.2625 H   0  0  0  0  0  0  0  0  0  0  0  0
   18.8332   19.3300   21.3159 C   0  0  0  0  0  0  0  0  0  0  0  0
   19.4736   19.5753   20.4576 H   0  0  0  0  0  0  0  0  0  0  0  0
   17.8281   19.1485   20.9114 H   0  0  0  0  0  0  0  0  0  0  0  0
   18.7744   20.5339   22.2830 C   0  0  0  0  0  0  0  0  0  0  0  0
   19.7826   20.7826   22.6396 H   0  0  0  0  0  0  0  0  0  0  0  0
   18.1772   20.2705   23.1669 H   0  0  0  0  0  0  0  0  0  0  0  0
   18.1628   21.7756   21.6034 C   0  0  0  0  0  0  0  0  0  0  0  0
   17.1371   21.5749   21.2674 H   0  0  0  0  0  0  0  0  0  0  0  0
   18.7567   22.0778   20.7308 H   0  0  0  0  0  0  0  0  0  0  0  0
   18.1310   22.6222   22.3014 H   0  0  0  0  0  0  0  0  0  0  0  0
  1  2  1  0  0  0  0
  1  3  2  0  0  0  0
  1  4  1  0  0  0  0
  4  5  1  0  0  0  0
  4  6  1  0  0  0  0
  4  7  1  0  0  0  0
  7  8  1  0  0  0  0
  7  9  1  0  0  0  0
  7 10  1  0  0  0  0
 10 11  1  0  0  0  0
 10 12  1  0  0  0  0
 10 13  1  0  0  0  0
 13 14  1  0  0  0  0
 13 15  1  0  0  0  0
 13 16  1  0  0  0  0
 16 17  1  0  0  0  0
 16 18  1  0  0  0  0
 16 19  1  0  0  0  0
 19 20  1  0  0  0  0
 19 21  1  0  0  0  0
 19 22  1  0  0  0  0
M  END
> <VConfSearch Rank>
527

> <Conf_Id>
50

> <Delta U+W>
-0.486

> <U+W>
-53.646

> <U>
7.026

> <W>
-60.672

> <W(PB)>
-62.964

> <W(SA)>
2.292

> <Valence>
7.637

> <Coulomb>
-1.488

> <VdW>
0.877

> <VdW6>
-7.165

> <VdW12>
8.043

> <Bond>
0.134

> <Angle>
2.513

> <Pdih>
4.990

> <Idih>
0.001

> <Tether>
0.000

$$$$
VeraChem MOL file


 22 21  0  0  0  0  0  0  0  0999 V2000     
   19.4476   15.9359   24.3509 C   0  0  0  0  0  0  0  0  0  0  0  0
   18.8464   16.0401   25.4018 O   0  5  0  0  0  0  0  0  0  0  0  0
   20.4808   15.3087   24.2259 O   0  0  0  0  0  0  0  0  0  0  0  0
   18.8851   16.6485   23.1261 C   0  0  0  0  0  0  0  0  0  0  0  0
   17.7916   16.6558   23.2087 H   0  0  0  0  0  0  0  0  0  0  0  0
   19.1395   16.0549   22.2398 H   0  0  0  0  0  0  0  0  0  0  0  0
   19.4201   18.0936   22.9724 C   0  0  0  0  0  0  0  0  0  0  0  0
   19.1654   18.6721   23.8711 H   0  0  0  0  0  0  0  0  0  0  0  0
   20.5159   18.0614   22.9119 H   0  0  0  0  0  0  0  0  0  0  0  0
   18.8375   18.7905   21.7209 C   0  0  0  0  0  0  0  0  0  0  0  0
   17.7408   18.7436   21.7645 H   0  0  0  0  0  0  0  0  0  0  0  0
   19.1365   18.2411   20.8177 H   0  0  0  0  0  0  0  0  0  0  0  0
   19.2594   20.2730   21.5886 C   0  0  0  0  0  0  0  0  0  0  0  0
   18.7048   20.7192   20.7517 H   0  0  0  0  0  0  0  0  0  0  0  0
   18.9571   20.8236   22.4899 H   0  0  0  0  0  0  0  0  0  0  0  0
   20.7735   20.4639   21.3448 C   0  0  0  0  0  0  0  0  0  0  0  0
   21.0864   19.8711   20.4743 H   0  0  0  0  0  0  0  0  0  0  0  0
   21.3451   20.0948   22.2064 H   0  0  0  0  0  0  0  0  0  0  0  0
   21.1254   21.9464   21.1080 C   0  0  0  0  0  0  0  0  0  0  0  0
   20.8478   22.5590   21.9757 H   0  0  0  0  0  0  0  0  0  0  0  0
   20.5998   22.3397   20.2280 H   0  0  0  0  0  0  0  0  0  0  0  0
   22.2036   22.0658   20.9398 H   0  0  0  0  0  0  0  0  0  0  0  0
  1  2  1  0  0  0  0
  1  3  2  0  0  0  0
  1  4  1  0  0  0  0
  4  5  1  0  0  0  0
  4  6  1  0  0  0  0
  4  7  1  0  0  0  0
  7  8  1  0  0  0  0
  7  9  1  0  0  0  0
  7 10  1  0  0  0  0
 10 11  1  0  0  0  0
 10 12  1  0  0  0  0
 10 13  1  0  0  0  0
 13 14  1  0  0  0  0
 13 15  1  0  0  0  0
 13 16  1  0  0  0  0
 16 17  1  0  0  0  0
 16 18  1  0  0  0  0
 16 19  1  0  0  0  0
 19 20  1  0  0  0  0
 19 21  1  0  0  0  0
 19 22  1  0  0  0  0
M  END
> <VConfSearch Rank>
528

> <Conf_Id>
51

> <Delta U+W>
-0.517

> <U+W>
-53.677

> <U>
7.026

> <W>
-60.703

> <W(PB)>
-63.007

> <W(SA)>
2.304

> <Valence>
7.638

> <Coulomb>
-1.488

> <VdW>
0.877

> <VdW6>
-7.165

> <VdW12>
8.042

> <Bond>
0.134

> <Angle>
2.513

> <Pdih>
4.990

> <Idih>
0.001

> <Tether>
0.000

$$$$
VeraChem MOL file


 22 21  0  0  0  0  0  0  0  0999 V2000     
   20.6579   22.2038   21.6832 C   0  0  0  0  0  0  0  0  0  0  0  0
   19.7240   22.9416   21.9289 O   0  5  0  0  0  0  0  0  0  0  0  0
   21.7381   22.2799   22.2347 O   0  0  0  0  0  0  0  0  0  0  0  0
   20.4674   21.1361   20.6094 C   0  0  0  0  0  0  0  0  0  0  0  0
   21.4549   20.8020   20.2687 H   0  0  0  0  0  0  0  0  0  0  0  0
   19.9816   21.6164   19.7519 H   0  0  0  0  0  0  0  0  0  0  0  0
   19.6209   19.9214   21.0709 C   0  0  0  0  0  0  0  0  0  0  0  0
   18.6462   20.2745   21.4353 H   0  0  0  0  0  0  0  0  0  0  0  0
   19.4200   19.2772   20.2042 H   0  0  0  0  0  0  0  0  0  0  0  0
   20.3216   19.0922   22.1704 C   0  0  0  0  0  0  0  0  0  0  0  0
   20.5107   19.7259   23.0480 H   0  0  0  0  0  0  0  0  0  0  0  0
   21.3009   18.7527   21.8060 H   0  0  0  0  0  0  0  0  0  0  0  0
   19.4759   17.8713   22.5920 C   0  0  0  0  0  0  0  0  0  0  0  0
   18.4968   18.2116   22.9564 H   0  0  0  0  0  0  0  0  0  0  0  0
   19.2879   17.2345   21.7167 H   0  0  0  0  0  0  0  0  0  0  0  0
   20.1747   17.0431   23.6906 C   0  0  0  0  0  0  0  0  0  0  0  0
   20.3628   17.6765   24.5687 H   0  0  0  0  0  0  0  0  0  0  0  0
   21.1539   16.6995   23.3291 H   0  0  0  0  0  0  0  0  0  0  0  0
   19.3270   15.8252   24.1095 C   0  0  0  0  0  0  0  0  0  0  0  0
   18.3530   16.1420   24.5050 H   0  0  0  0  0  0  0  0  0  0  0  0
   19.8385   15.2481   24.8908 H   0  0  0  0  0  0  0  0  0  0  0  0
   19.1499   15.1576   23.2561 H   0  0  0  0  0  0  0  0  0  0  0  0
  1  2  1  0  0  0  0
  1  3  2  0  0  0  0
  1  4  1  0  0  0  0
  4  5  1  0  0  0  0
  4  6  1  0  0  0  0
  4  7  1  0  0  0  0
  7  8  1  0  0  0  0
  7  9  1  0  0  0  0
  7 10  1  0  0  0  0
 10 11  1  0  0  0  0
 10 12  1  0  0  0  0
 10 13  1  0  0  0  0
 13 14  1  0  0  0  0
 13 15  1  0  0  0  0
 13 16  1  0  0  0  0
 16 17  1  0  0  0  0
 16 18  1  0  0  0  0
 16 19  1  0  0  0  0
 19 20  1  0  0  0  0
 19 21  1  0  0  0  0
 19 22  1  0  0  0  0
M  END
> <VConfSearch Rank>
529

> <Conf_Id>
43

> <Delta U+W>
-0.129

> <U+W>
-53.289

> <U>
7.937

> <W>
-61.225

> <W(PB)>
-63.523

> <W(SA)>
2.297

> <Valence>
7.358

> <Coulomb>
-0.022

> <VdW>
0.601

> <VdW6>
-7.363

> <VdW12>
7.964

> <Bond>
0.121

> <Angle>
2.425

> <Pdih>
4.811

> <Idih>
0.000

> <Tether>
0.000

$$$$
VeraChem MOL file


 22 21  0  0  0  0  0  0  0  0999 V2000     
   21.8169   16.4274   21.6155 C   0  0  0  0  0  0  0  0  0  0  0  0
   22.9895   16.7461   21.5922 O   0  5  0  0  0  0  0  0  0  0  0  0
   21.2216   15.9833   20.6537 O   0  0  0  0  0  0  0  0  0  0  0  0
   21.0574   16.5770   22.9307 C   0  0  0  0  0  0  0  0  0  0  0  0
   21.6935   16.1689   23.7250 H   0  0  0  0  0  0  0  0  0  0  0  0
   20.1589   15.9492   22.8896 H   0  0  0  0  0  0  0  0  0  0  0  0
   20.6734   18.0396   23.2747 C   0  0  0  0  0  0  0  0  0  0  0  0
   20.2586   18.0695   24.2913 H   0  0  0  0  0  0  0  0  0  0  0  0
   21.5797   18.6611   23.2845 H   0  0  0  0  0  0  0  0  0  0  0  0
   19.6435   18.6317   22.2866 C   0  0  0  0  0  0  0  0  0  0  0  0
   18.7449   17.9997   22.2707 H   0  0  0  0  0  0  0  0  0  0  0  0
   20.0582   18.6209   21.2691 H   0  0  0  0  0  0  0  0  0  0  0  0
   19.2523   20.0762   22.6658 C   0  0  0  0  0  0  0  0  0  0  0  0
   18.8346   20.0891   23.6819 H   0  0  0  0  0  0  0  0  0  0  0  0
   20.1514   20.7075   22.6814 H   0  0  0  0  0  0  0  0  0  0  0  0
   18.2244   20.6684   21.6791 C   0  0  0  0  0  0  0  0  0  0  0  0
   17.3228   20.0403   21.6620 H   0  0  0  0  0  0  0  0  0  0  0  0
   18.6395   20.6587   20.6617 H   0  0  0  0  0  0  0  0  0  0  0  0
   17.8366   22.1111   22.0606 C   0  0  0  0  0  0  0  0  0  0  0  0
   17.3892   22.1457   23.0626 H   0  0  0  0  0  0  0  0  0  0  0  0
   17.1056   22.5163   21.3488 H   0  0  0  0  0  0  0  0  0  0  0  0
   18.7158   22.7687   22.0547 H   0  0  0  0  0  0  0  0  0  0  0  0
  1  2  1  0  0  0  0
  1  3  2  0  0  0  0
  1  4  1  0  0  0  0
  4  5  1  0  0  0  0
  4  6  1  0  0  0  0
  4  7  1  0  0  0  0
  7  8  1  0  0  0  0
  7  9  1  0  0  0  0
  7 10  1  0  0  0  0
 10 11  1  0  0  0  0
 10 12  1  0  0  0  0
 10 13  1  0  0  0  0
 13 14  1  0  0  0  0
 13 15  1  0  0  0  0
 13 16  1  0  0  0  0
 16 17  1  0  0  0  0
 16 18  1  0  0  0  0
 16 19  1  0  0  0  0
 19 20  1  0  0  0  0
 19 21  1  0  0  0  0
 19 22  1  0  0  0  0
M  END
> <VConfSearch Rank>
530

> <Conf_Id>
44

> <Delta U+W>
-0.155

> <U+W>
-53.314

> <U>
7.937

> <W>
-61.252

> <W(PB)>
-63.556

> <W(SA)>
2.304

> <Valence>
7.358

> <Coulomb>
-0.021

> <VdW>
0.600

> <VdW6>
-7.363

> <VdW12>
7.964

> <Bond>
0.121

> <Angle>
2.425

> <Pdih>
4.811

> <Idih>
0.001

> <Tether>
0.000

$$$$
VeraChem MOL file


 22 21  0  0  0  0  0  0  0  0999 V2000     
   16.3285   18.6827   21.4539 C   0  0  0  0  0  0  0  0  0  0  0  0
   15.6065   19.1386   22.3187 O   0  5  0  0  0  0  0  0  0  0  0  0
   16.1833   17.5770   20.9709 O   0  0  0  0  0  0  0  0  0  0  0  0
   17.4674   19.5556   20.9339 C   0  0  0  0  0  0  0  0  0  0  0  0
   17.0562   20.5557   20.7527 H   0  0  0  0  0  0  0  0  0  0  0  0
   17.7926   19.1653   19.9619 H   0  0  0  0  0  0  0  0  0  0  0  0
   18.6761   19.6604   21.9002 C   0  0  0  0  0  0  0  0  0  0  0  0
   19.3644   20.4227   21.5139 H   0  0  0  0  0  0  0  0  0  0  0  0
   18.3283   20.0139   22.8807 H   0  0  0  0  0  0  0  0  0  0  0  0
   19.4249   18.3157   22.0625 C   0  0  0  0  0  0  0  0  0  0  0  0
   19.8083   17.9849   21.0876 H   0  0  0  0  0  0  0  0  0  0  0  0
   18.7147   17.5453   22.3927 H   0  0  0  0  0  0  0  0  0  0  0  0
   20.5860   18.3757   23.0833 C   0  0  0  0  0  0  0  0  0  0  0  0
   20.2021   18.7068   24.0579 H   0  0  0  0  0  0  0  0  0  0  0  0
   20.9713   17.3576   23.2312 H   0  0  0  0  0  0  0  0  0  0  0  0
   21.7496   19.2923   22.6425 C   0  0  0  0  0  0  0  0  0  0  0  0
   21.4050   20.3318   22.5663 H   0  0  0  0  0  0  0  0  0  0  0  0
   22.0974   18.9952   21.6435 H   0  0  0  0  0  0  0  0  0  0  0  0
   22.9278   19.2268   23.6351 C   0  0  0  0  0  0  0  0  0  0  0  0
   22.6141   19.5453   24.6379 H   0  0  0  0  0  0  0  0  0  0  0  0
   23.7441   19.8850   23.3103 H   0  0  0  0  0  0  0  0  0  0  0  0
   23.3246   18.2058   23.7079 H   0  0  0  0  0  0  0  0  0  0  0  0
  1  2  1  0  0  0  0
  1  3  2  0  0  0  0
  1  4  1  0  0  0  0
  4  5  1  0  0  0  0
  4  6  1  0  0  0  0
  4  7  1  0  0  0  0
  7  8  1  0  0  0  0
  7  9  1  0  0  0  0
  7 10  1  0  0  0  0
 10 11  1  0  0  0  0
 10 12  1  0  0  0  0
 10 13  1  0  0  0  0
 13 14  1  0  0  0  0
 13 15  1  0  0  0  0
 13 16  1  0  0  0  0
 16 17  1  0  0  0  0
 16 18  1  0  0  0  0
 16 19  1  0  0  0  0
 19 20  1  0  0  0  0
 19 21  1  0  0  0  0
 19 22  1  0  0  0  0
M  END
> <VConfSearch Rank>
531

> <Conf_Id>
53

> <Delta U+W>
0.723

> <U+W>
-52.436

> <U>
8.587

> <W>
-61.022

> <W(PB)>
-63.285

> <W(SA)>
2.263

> <Valence>
7.933

> <Coulomb>
-0.124

> <VdW>
0.778

> <VdW6>
-7.981

> <VdW12>
8.759

> <Bond>
0.160

> <Angle>
2.698

> <Pdih>
5.074

> <Idih>
0.001

> <Tether>
0.000

$$$$
VeraChem MOL file


 22 21  0  0  0  0  0  0  0  0999 V2000     
   16.6882   18.9677   21.0248 C   0  0  0  0  0  0  0  0  0  0  0  0
   16.6727   18.2163   20.0699 O   0  5  0  0  0  0  0  0  0  0  0  0
   15.7024   19.5392   21.4470 O   0  0  0  0  0  0  0  0  0  0  0  0
   18.0126   19.1882   21.7468 C   0  0  0  0  0  0  0  0  0  0  0  0
   18.0109   20.2039   22.1598 H   0  0  0  0  0  0  0  0  0  0  0  0
   18.8107   19.1371   20.9976 H   0  0  0  0  0  0  0  0  0  0  0  0
   18.2628   18.1523   22.8716 C   0  0  0  0  0  0  0  0  0  0  0  0
   17.3839   18.1292   23.5307 H   0  0  0  0  0  0  0  0  0  0  0  0
   18.3411   17.1498   22.4286 H   0  0  0  0  0  0  0  0  0  0  0  0
   19.5171   18.4376   23.7354 C   0  0  0  0  0  0  0  0  0  0  0  0
   19.5595   17.6700   24.5202 H   0  0  0  0  0  0  0  0  0  0  0  0
   19.4033   19.3955   24.2612 H   0  0  0  0  0  0  0  0  0  0  0  0
   20.8573   18.4070   22.9578 C   0  0  0  0  0  0  0  0  0  0  0  0
   21.6272   17.9701   23.6085 H   0  0  0  0  0  0  0  0  0  0  0  0
   20.7752   17.7379   22.0903 H   0  0  0  0  0  0  0  0  0  0  0  0
   21.3410   19.8071   22.5146 C   0  0  0  0  0  0  0  0  0  0  0  0
   21.4735   20.4467   23.3981 H   0  0  0  0  0  0  0  0  0  0  0  0
   20.5876   20.2947   21.8845 H   0  0  0  0  0  0  0  0  0  0  0  0
   22.6723   19.7264   21.7410 C   0  0  0  0  0  0  0  0  0  0  0  0
   23.4605   19.2788   22.3604 H   0  0  0  0  0  0  0  0  0  0  0  0
   23.0059   20.7279   21.4396 H   0  0  0  0  0  0  0  0  0  0  0  0
   22.5623   19.1184   20.8335 H   0  0  0  0  0  0  0  0  0  0  0  0
  1  2  1  0  0  0  0
  1  3  2  0  0  0  0
  1  4  1  0  0  0  0
  4  5  1  0  0  0  0
  4  6  1  0  0  0  0
  4  7  1  0  0  0  0
  7  8  1  0  0  0  0
  7  9  1  0  0  0  0
  7 10  1  0  0  0  0
 10 11  1  0  0  0  0
 10 12  1  0  0  0  0
 10 13  1  0  0  0  0
 13 14  1  0  0  0  0
 13 15  1  0  0  0  0
 13 16  1  0  0  0  0
 16 17  1  0  0  0  0
 16 18  1  0  0  0  0
 16 19  1  0  0  0  0
 19 20  1  0  0  0  0
 19 21  1  0  0  0  0
 19 22  1  0  0  0  0
M  END
> <VConfSearch Rank>
532

> <Conf_Id>
5

> <Delta U+W>
2.167

> <U+W>
-50.993

> <U>
10.045

> <W>
-61.037

> <W(PB)>
-63.303

> <W(SA)>
2.266

> <Valence>
10.100

> <Coulomb>
-0.883

> <VdW>
0.828

> <VdW6>
-8.177

> <VdW12>
9.005

> <Bond>
0.182

> <Angle>
2.988

> <Pdih>
6.930

> <Idih>
0.001

> <Tether>
0.000

$$$$
VeraChem MOL file


 22 21  0  0  0  0  0  0  0  0999 V2000     
   16.7476   19.9553   22.9072 C   0  0  0  0  0  0  0  0  0  0  0  0
   16.0838   19.0242   23.3181 O   0  5  0  0  0  0  0  0  0  0  0  0
   16.2897   21.0564   22.6737 O   0  0  0  0  0  0  0  0  0  0  0  0
   18.2320   19.7234   22.6488 C   0  0  0  0  0  0  0  0  0  0  0  0
   18.5885   19.0009   23.3915 H   0  0  0  0  0  0  0  0  0  0  0  0
   18.7606   20.6677   22.8253 H   0  0  0  0  0  0  0  0  0  0  0  0
   18.5184   19.2082   21.2157 C   0  0  0  0  0  0  0  0  0  0  0  0
   18.0473   18.2243   21.0846 H   0  0  0  0  0  0  0  0  0  0  0  0
   18.0310   19.8806   20.4961 H   0  0  0  0  0  0  0  0  0  0  0  0
   20.0234   19.1150   20.8592 C   0  0  0  0  0  0  0  0  0  0  0  0
   20.4815   20.1130   20.8916 H   0  0  0  0  0  0  0  0  0  0  0  0
   20.0955   18.7877   19.8130 H   0  0  0  0  0  0  0  0  0  0  0  0
   20.8334   18.1230   21.7319 C   0  0  0  0  0  0  0  0  0  0  0  0
   20.1779   17.3221   22.1003 H   0  0  0  0  0  0  0  0  0  0  0  0
   21.5851   17.6345   21.0968 H   0  0  0  0  0  0  0  0  0  0  0  0
   21.5688   18.8024   22.9102 C   0  0  0  0  0  0  0  0  0  0  0  0
   20.8575   19.3297   23.5571 H   0  0  0  0  0  0  0  0  0  0  0  0
   22.2625   19.5608   22.5221 H   0  0  0  0  0  0  0  0  0  0  0  0
   22.3549   17.7775   23.7522 C   0  0  0  0  0  0  0  0  0  0  0  0
   21.6819   17.0235   24.1809 H   0  0  0  0  0  0  0  0  0  0  0  0
   22.8767   18.2756   24.5797 H   0  0  0  0  0  0  0  0  0  0  0  0
   23.1055   17.2596   23.1409 H   0  0  0  0  0  0  0  0  0  0  0  0
  1  2  1  0  0  0  0
  1  3  2  0  0  0  0
  1  4  1  0  0  0  0
  4  5  1  0  0  0  0
  4  6  1  0  0  0  0
  4  7  1  0  0  0  0
  7  8  1  0  0  0  0
  7  9  1  0  0  0  0
  7 10  1  0  0  0  0
 10 11  1  0  0  0  0
 10 12  1  0  0  0  0
 10 13  1  0  0  0  0
 13 14  1  0  0  0  0
 13 15  1  0  0  0  0
 13 16  1  0  0  0  0
 16 17  1  0  0  0  0
 16 18  1  0  0  0  0
 16 19  1  0  0  0  0
 19 20  1  0  0  0  0
 19 21  1  0  0  0  0
 19 22  1  0  0  0  0
M  END
> <VConfSearch Rank>
533

> <Conf_Id>
6

> <Delta U+W>
2.118

> <U+W>
-51.042

> <U>
10.045

> <W>
-61.086

> <W(PB)>
-63.356

> <W(SA)>
2.270

> <Valence>
10.100

> <Coulomb>
-0.883

> <VdW>
0.828

> <VdW6>
-8.177

> <VdW12>
9.004

> <Bond>
0.182

> <Angle>
2.988

> <Pdih>
6.930

> <Idih>
0.001

> <Tether>
0.000

$$$$
VeraChem MOL file


 22 21  0  0  0  0  0  0  0  0999 V2000     
   20.9093   20.0700   24.7328 C   0  0  0  0  0  0  0  0  0  0  0  0
   20.5772   21.2387   24.7708 O   0  5  0  0  0  0  0  0  0  0  0  0
   22.0264   19.7004   24.4285 O   0  0  0  0  0  0  0  0  0  0  0  0
   19.8919   19.0127   25.1574 C   0  0  0  0  0  0  0  0  0  0  0  0
   19.6660   19.2086   26.2120 H   0  0  0  0  0  0  0  0  0  0  0  0
   20.3661   18.0247   25.1165 H   0  0  0  0  0  0  0  0  0  0  0  0
   18.5641   19.0066   24.3487 C   0  0  0  0  0  0  0  0  0  0  0  0
   17.8025   18.4937   24.9516 H   0  0  0  0  0  0  0  0  0  0  0  0
   18.2016   20.0354   24.2158 H   0  0  0  0  0  0  0  0  0  0  0  0
   18.6417   18.2896   22.9780 C   0  0  0  0  0  0  0  0  0  0  0  0
   17.6228   18.2123   22.5746 H   0  0  0  0  0  0  0  0  0  0  0  0
   18.9966   17.2596   23.1192 H   0  0  0  0  0  0  0  0  0  0  0  0
   19.5331   19.0085   21.9402 C   0  0  0  0  0  0  0  0  0  0  0  0
   19.2435   20.0663   21.8746 H   0  0  0  0  0  0  0  0  0  0  0  0
   20.5807   18.9816   22.2658 H   0  0  0  0  0  0  0  0  0  0  0  0
   19.4256   18.3555   20.5459 C   0  0  0  0  0  0  0  0  0  0  0  0
   18.3823   18.3830   20.2024 H   0  0  0  0  0  0  0  0  0  0  0  0
   19.7132   17.2969   20.6103 H   0  0  0  0  0  0  0  0  0  0  0  0
   20.3227   19.0686   19.5143 C   0  0  0  0  0  0  0  0  0  0  0  0
   20.0360   20.1229   19.4072 H   0  0  0  0  0  0  0  0  0  0  0  0
   20.2351   18.5914   18.5296 H   0  0  0  0  0  0  0  0  0  0  0  0
   21.3771   19.0294   19.8178 H   0  0  0  0  0  0  0  0  0  0  0  0
  1  2  1  0  0  0  0
  1  3  2  0  0  0  0
  1  4  1  0  0  0  0
  4  5  1  0  0  0  0
  4  6  1  0  0  0  0
  4  7  1  0  0  0  0
  7  8  1  0  0  0  0
  7  9  1  0  0  0  0
  7 10  1  0  0  0  0
 10 11  1  0  0  0  0
 10 12  1  0  0  0  0
 10 13  1  0  0  0  0
 13 14  1  0  0  0  0
 13 15  1  0  0  0  0
 13 16  1  0  0  0  0
 16 17  1  0  0  0  0
 16 18  1  0  0  0  0
 16 19  1  0  0  0  0
 19 20  1  0  0  0  0
 19 21  1  0  0  0  0
 19 22  1  0  0  0  0
M  END
> <VConfSearch Rank>
534

> <Conf_Id>
8

> <Delta U+W>
1.886

> <U+W>
-51.274

> <U>
11.237

> <W>
-62.510

> <W(PB)>
-64.777

> <W(SA)>
2.267

> <Valence>
9.029

> <Coulomb>
1.667

> <VdW>
0.540

> <VdW6>
-8.825

> <VdW12>
9.365

> <Bond>
0.186

> <Angle>
3.195

> <Pdih>
5.642

> <Idih>
0.007

> <Tether>
0.000

$$$$
VeraChem MOL file


 22 21  0  0  0  0  0  0  0  0999 V2000     
   19.5691   20.2288   19.6437 C   0  0  0  0  0  0  0  0  0  0  0  0
   20.6577   19.7511   19.3918 O   0  5  0  0  0  0  0  0  0  0  0  0
   19.2716   21.3838   19.4099 O   0  0  0  0  0  0  0  0  0  0  0  0
   18.5063   19.3231   20.2596 C   0  0  0  0  0  0  0  0  0  0  0  0
   18.8245   18.2807   20.1469 H   0  0  0  0  0  0  0  0  0  0  0  0
   17.5960   19.4348   19.6590 H   0  0  0  0  0  0  0  0  0  0  0  0
   18.1824   19.6421   21.7450 C   0  0  0  0  0  0  0  0  0  0  0  0
   17.7921   20.6674   21.8063 H   0  0  0  0  0  0  0  0  0  0  0  0
   17.3721   18.9842   22.0867 H   0  0  0  0  0  0  0  0  0  0  0  0
   19.3866   19.5109   22.7102 C   0  0  0  0  0  0  0  0  0  0  0  0
   19.0633   19.8498   23.7025 H   0  0  0  0  0  0  0  0  0  0  0  0
   20.1894   20.1921   22.3966 H   0  0  0  0  0  0  0  0  0  0  0  0
   19.9401   18.0685   22.8125 C   0  0  0  0  0  0  0  0  0  0  0  0
   19.1356   17.3809   23.1068 H   0  0  0  0  0  0  0  0  0  0  0  0
   20.2858   17.7421   21.8230 H   0  0  0  0  0  0  0  0  0  0  0  0
   21.1238   17.9333   23.7987 C   0  0  0  0  0  0  0  0  0  0  0  0
   21.9238   18.6314   23.5154 H   0  0  0  0  0  0  0  0  0  0  0  0
   21.5460   16.9234   23.7040 H   0  0  0  0  0  0  0  0  0  0  0  0
   20.7258   18.1667   25.2724 C   0  0  0  0  0  0  0  0  0  0  0  0
   20.4108   19.2033   25.4444 H   0  0  0  0  0  0  0  0  0  0  0  0
   21.5767   17.9647   25.9358 H   0  0  0  0  0  0  0  0  0  0  0  0
   19.9029   17.5026   25.5671 H   0  0  0  0  0  0  0  0  0  0  0  0
  1  2  1  0  0  0  0
  1  3  2  0  0  0  0
  1  4  1  0  0  0  0
  4  5  1  0  0  0  0
  4  6  1  0  0  0  0
  4  7  1  0  0  0  0
  7  8  1  0  0  0  0
  7  9  1  0  0  0  0
  7 10  1  0  0  0  0
 10 11  1  0  0  0  0
 10 12  1  0  0  0  0
 10 13  1  0  0  0  0
 13 14  1  0  0  0  0
 13 15  1  0  0  0  0
 13 16  1  0  0  0  0
 16 17  1  0  0  0  0
 16 18  1  0  0  0  0
 16 19  1  0  0  0  0
 19 20  1  0  0  0  0
 19 21  1  0  0  0  0
 19 22  1  0  0  0  0
M  END
> <VConfSearch Rank>
535

> <Conf_Id>
93

> <Delta U+W>
1.836

> <U+W>
-51.323

> <U>
10.427

> <W>
-61.751

> <W(PB)>
-63.980

> <W(SA)>
2.230

> <Valence>
8.446

> <Coulomb>
1.306

> <VdW>
0.676

> <VdW6>
-8.928

> <VdW12>
9.604

> <Bond>
0.209

> <Angle>
3.066

> <Pdih>
5.170

> <Idih>
0.001

> <Tether>
0.000

$$$$
VeraChem MOL file


 22 21  0  0  0  0  0  0  0  0999 V2000     
   18.1413   16.4814   22.8025 C   0  0  0  0  0  0  0  0  0  0  0  0
   18.4317   15.5879   23.5736 O   0  5  0  0  0  0  0  0  0  0  0  0
   18.1154   16.3451   21.5952 O   0  0  0  0  0  0  0  0  0  0  0  0
   17.7598   17.8390   23.3860 C   0  0  0  0  0  0  0  0  0  0  0  0
   17.0067   17.6595   24.1621 H   0  0  0  0  0  0  0  0  0  0  0  0
   17.2654   18.4300   22.6070 H   0  0  0  0  0  0  0  0  0  0  0  0
   18.9511   18.6245   24.0000 C   0  0  0  0  0  0  0  0  0  0  0  0
   18.5774   19.5568   24.4443 H   0  0  0  0  0  0  0  0  0  0  0  0
   19.3696   18.0358   24.8280 H   0  0  0  0  0  0  0  0  0  0  0  0
   20.0883   18.9555   23.0020 C   0  0  0  0  0  0  0  0  0  0  0  0
   20.4927   18.0259   22.5788 H   0  0  0  0  0  0  0  0  0  0  0  0
   20.9072   19.4212   23.5645 H   0  0  0  0  0  0  0  0  0  0  0  0
   19.6473   19.8988   21.8561 C   0  0  0  0  0  0  0  0  0  0  0  0
   18.8455   19.4190   21.2801 H   0  0  0  0  0  0  0  0  0  0  0  0
   19.2241   20.8216   22.2754 H   0  0  0  0  0  0  0  0  0  0  0  0
   20.7911   20.2519   20.8767 C   0  0  0  0  0  0  0  0  0  0  0  0
   20.3665   20.7989   20.0237 H   0  0  0  0  0  0  0  0  0  0  0  0
   21.2267   19.3297   20.4677 H   0  0  0  0  0  0  0  0  0  0  0  0
   21.9018   21.1150   21.5142 C   0  0  0  0  0  0  0  0  0  0  0  0
   22.4403   20.5643   22.2953 H   0  0  0  0  0  0  0  0  0  0  0  0
   21.4835   22.0265   21.9606 H   0  0  0  0  0  0  0  0  0  0  0  0
   22.6356   21.4165   20.7557 H   0  0  0  0  0  0  0  0  0  0  0  0
  1  2  1  0  0  0  0
  1  3  2  0  0  0  0
  1  4  1  0  0  0  0
  4  5  1  0  0  0  0
  4  6  1  0  0  0  0
  4  7  1  0  0  0  0
  7  8  1  0  0  0  0
  7  9  1  0  0  0  0
  7 10  1  0  0  0  0
 10 11  1  0  0  0  0
 10 12  1  0  0  0  0
 10 13  1  0  0  0  0
 13 14  1  0  0  0  0
 13 15  1  0  0  0  0
 13 16  1  0  0  0  0
 16 17  1  0  0  0  0
 16 18  1  0  0  0  0
 16 19  1  0  0  0  0
 19 20  1  0  0  0  0
 19 21  1  0  0  0  0
 19 22  1  0  0  0  0
M  END
> <VConfSearch Rank>
536

> <Conf_Id>
70

> <Delta U+W>
1.803

> <U+W>
-51.356

> <U>
10.428

> <W>
-61.784

> <W(PB)>
-64.014

> <W(SA)>
2.230

> <Valence>
8.445

> <Coulomb>
1.306

> <VdW>
0.676

> <VdW6>
-8.929

> <VdW12>
9.605

> <Bond>
0.209

> <Angle>
3.066

> <Pdih>
5.170

> <Idih>
0.001

> <Tether>
0.000

$$$$
VeraChem MOL file


 22 21  0  0  0  0  0  0  0  0999 V2000     
   22.8777   19.2526   21.4528 C   0  0  0  0  0  0  0  0  0  0  0  0
   22.9954   18.3862   20.6087 O   0  5  0  0  0  0  0  0  0  0  0  0
   23.5657   19.3151   22.4526 O   0  0  0  0  0  0  0  0  0  0  0  0
   21.8217   20.3321   21.2326 C   0  0  0  0  0  0  0  0  0  0  0  0
   21.8981   20.6583   20.1887 H   0  0  0  0  0  0  0  0  0  0  0  0
   22.0725   21.1995   21.8552 H   0  0  0  0  0  0  0  0  0  0  0  0
   20.3723   19.8637   21.5242 C   0  0  0  0  0  0  0  0  0  0  0  0
   19.6735   20.6533   21.2166 H   0  0  0  0  0  0  0  0  0  0  0  0
   20.1515   18.9846   20.9045 H   0  0  0  0  0  0  0  0  0  0  0  0
   20.1460   19.5352   23.0193 C   0  0  0  0  0  0  0  0  0  0  0  0
   20.4560   20.3977   23.6251 H   0  0  0  0  0  0  0  0  0  0  0  0
   20.7919   18.6986   23.3195 H   0  0  0  0  0  0  0  0  0  0  0  0
   18.6749   19.1987   23.3603 C   0  0  0  0  0  0  0  0  0  0  0  0
   18.5841   19.1016   24.4508 H   0  0  0  0  0  0  0  0  0  0  0  0
   18.0279   20.0370   23.0681 H   0  0  0  0  0  0  0  0  0  0  0  0
   18.1719   17.8965   22.6974 C   0  0  0  0  0  0  0  0  0  0  0  0
   18.8494   17.0682   22.9467 H   0  0  0  0  0  0  0  0  0  0  0  0
   18.1813   18.0002   21.6044 H   0  0  0  0  0  0  0  0  0  0  0  0
   16.7422   17.5445   23.1554 C   0  0  0  0  0  0  0  0  0  0  0  0
   16.7030   17.3951   24.2423 H   0  0  0  0  0  0  0  0  0  0  0  0
   16.3985   16.6198   22.6738 H   0  0  0  0  0  0  0  0  0  0  0  0
   16.0380   18.3451   22.8936 H   0  0  0  0  0  0  0  0  0  0  0  0
  1  2  1  0  0  0  0
  1  3  2  0  0  0  0
  1  4  1  0  0  0  0
  4  5  1  0  0  0  0
  4  6  1  0  0  0  0
  4  7  1  0  0  0  0
  7  8  1  0  0  0  0
  7  9  1  0  0  0  0
  7 10  1  0  0  0  0
 10 11  1  0  0  0  0
 10 12  1  0  0  0  0
 10 13  1  0  0  0  0
 13 14  1  0  0  0  0
 13 15  1  0  0  0  0
 13 16  1  0  0  0  0
 16 17  1  0  0  0  0
 16 18  1  0  0  0  0
 16 19  1  0  0  0  0
 19 20  1  0  0  0  0
 19 21  1  0  0  0  0
 19 22  1  0  0  0  0
M  END
> <VConfSearch Rank>
537

> <Conf_Id>
85

> <Delta U+W>
0.707

> <U+W>
-52.452

> <U>
8.925

> <W>
-61.378

> <W(PB)>
-63.661

> <W(SA)>
2.283

> <Valence>
7.881

> <Coulomb>
0.349

> <VdW>
0.695

> <VdW6>
-8.049

> <VdW12>
8.743

> <Bond>
0.156

> <Angle>
2.660

> <Pdih>
5.064

> <Idih>
0.001

> <Tether>
0.000

$$$$
VeraChem MOL file


 22 21  0  0  0  0  0  0  0  0999 V2000     
   21.6902   19.3189   19.6249 C   0  0  0  0  0  0  0  0  0  0  0  0
   21.8542   18.2859   19.0061 O   0  5  0  0  0  0  0  0  0  0  0  0
   21.3529   20.3658   19.1078 O   0  0  0  0  0  0  0  0  0  0  0  0
   21.9434   19.3088   21.1300 C   0  0  0  0  0  0  0  0  0  0  0  0
   22.5500   20.1913   21.3650 H   0  0  0  0  0  0  0  0  0  0  0  0
   22.5516   18.4304   21.3776 H   0  0  0  0  0  0  0  0  0  0  0  0
   20.6522   19.3256   21.9892 C   0  0  0  0  0  0  0  0  0  0  0  0
   20.9372   19.4756   23.0381 H   0  0  0  0  0  0  0  0  0  0  0  0
   20.0309   20.1837   21.6978 H   0  0  0  0  0  0  0  0  0  0  0  0
   19.8364   18.0181   21.8631 C   0  0  0  0  0  0  0  0  0  0  0  0
   20.4356   17.1767   22.2371 H   0  0  0  0  0  0  0  0  0  0  0  0
   19.6478   17.8115   20.8007 H   0  0  0  0  0  0  0  0  0  0  0  0
   18.4724   18.0458   22.5974 C   0  0  0  0  0  0  0  0  0  0  0  0
   17.8290   18.8253   22.1669 H   0  0  0  0  0  0  0  0  0  0  0  0
   17.9664   17.0932   22.3891 H   0  0  0  0  0  0  0  0  0  0  0  0
   18.5659   18.2153   24.1344 C   0  0  0  0  0  0  0  0  0  0  0  0
   19.5194   17.8143   24.5050 H   0  0  0  0  0  0  0  0  0  0  0  0
   17.7777   17.6098   24.6029 H   0  0  0  0  0  0  0  0  0  0  0  0
   18.3828   19.6776   24.5981 C   0  0  0  0  0  0  0  0  0  0  0  0
   19.1492   20.3385   24.1777 H   0  0  0  0  0  0  0  0  0  0  0  0
   18.4460   19.7442   25.6919 H   0  0  0  0  0  0  0  0  0  0  0  0
   17.4006   20.0628   24.2948 H   0  0  0  0  0  0  0  0  0  0  0  0
  1  2  1  0  0  0  0
  1  3  2  0  0  0  0
  1  4  1  0  0  0  0
  4  5  1  0  0  0  0
  4  6  1  0  0  0  0
  4  7  1  0  0  0  0
  7  8  1  0  0  0  0
  7  9  1  0  0  0  0
  7 10  1  0  0  0  0
 10 11  1  0  0  0  0
 10 12  1  0  0  0  0
 10 13  1  0  0  0  0
 13 14  1  0  0  0  0
 13 15  1  0  0  0  0
 13 16  1  0  0  0  0
 16 17  1  0  0  0  0
 16 18  1  0  0  0  0
 16 19  1  0  0  0  0
 19 20  1  0  0  0  0
 19 21  1  0  0  0  0
 19 22  1  0  0  0  0
M  END
> <VConfSearch Rank>
538

> <Conf_Id>
82

> <Delta U+W>
3.438

> <U+W>
-49.721

> <U>
11.773

> <W>
-61.495

> <W(PB)>
-63.749

> <W(SA)>
2.254

> <Valence>
10.419

> <Coulomb>
0.565

> <VdW>
0.789

> <VdW6>
-8.847

> <VdW12>
9.636

> <Bond>
0.200

> <Angle>
3.187

> <Pdih>
7.032

> <Idih>
0.001

> <Tether>
0.000

$$$$
VeraChem MOL file


 22 21  0  0  0  0  0  0  0  0999 V2000     
   18.8881   16.0621   23.7897 C   0  0  0  0  0  0  0  0  0  0  0  0
   19.3614   15.9958   24.9072 O   0  5  0  0  0  0  0  0  0  0  0  0
   17.7253   15.8158   23.5367 O   0  0  0  0  0  0  0  0  0  0  0  0
   19.8117   16.4535   22.6394 C   0  0  0  0  0  0  0  0  0  0  0  0
   19.3491   16.1402   21.6957 H   0  0  0  0  0  0  0  0  0  0  0  0
   20.7345   15.8718   22.7490 H   0  0  0  0  0  0  0  0  0  0  0  0
   20.1564   17.9650   22.5908 C   0  0  0  0  0  0  0  0  0  0  0  0
   20.5751   18.2753   23.5581 H   0  0  0  0  0  0  0  0  0  0  0  0
   20.9394   18.1166   21.8373 H   0  0  0  0  0  0  0  0  0  0  0  0
   18.9330   18.8435   22.2406 C   0  0  0  0  0  0  0  0  0  0  0  0
   18.1107   18.6081   22.9300 H   0  0  0  0  0  0  0  0  0  0  0  0
   18.5737   18.5844   21.2354 H   0  0  0  0  0  0  0  0  0  0  0  0
   19.2019   20.3675   22.3149 C   0  0  0  0  0  0  0  0  0  0  0  0
   18.2536   20.8802   22.1036 H   0  0  0  0  0  0  0  0  0  0  0  0
   19.4724   20.6524   23.3409 H   0  0  0  0  0  0  0  0  0  0  0  0
   20.2642   20.8888   21.3151 C   0  0  0  0  0  0  0  0  0  0  0  0
   19.9542   21.8810   20.9591 H   0  0  0  0  0  0  0  0  0  0  0  0
   20.3007   20.2436   20.4266 H   0  0  0  0  0  0  0  0  0  0  0  0
   21.6717   21.0241   21.9377 C   0  0  0  0  0  0  0  0  0  0  0  0
   21.6588   21.7251   22.7824 H   0  0  0  0  0  0  0  0  0  0  0  0
   22.3846   21.4061   21.1956 H   0  0  0  0  0  0  0  0  0  0  0  0
   22.0512   20.0629   22.3024 H   0  0  0  0  0  0  0  0  0  0  0  0
  1  2  1  0  0  0  0
  1  3  2  0  0  0  0
  1  4  1  0  0  0  0
  4  5  1  0  0  0  0
  4  6  1  0  0  0  0
  4  7  1  0  0  0  0
  7  8  1  0  0  0  0
  7  9  1  0  0  0  0
  7 10  1  0  0  0  0
 10 11  1  0  0  0  0
 10 12  1  0  0  0  0
 10 13  1  0  0  0  0
 13 14  1  0  0  0  0
 13 15  1  0  0  0  0
 13 16  1  0  0  0  0
 16 17  1  0  0  0  0
 16 18  1  0  0  0  0
 16 19  1  0  0  0  0
 19 20  1  0  0  0  0
 19 21  1  0  0  0  0
 19 22  1  0  0  0  0
M  END
> <VConfSearch Rank>
539

> <Conf_Id>
94

> <Delta U+W>
3.471

> <U+W>
-49.688

> <U>
11.773

> <W>
-61.461

> <W(PB)>
-63.710

> <W(SA)>
2.248

> <Valence>
10.419

> <Coulomb>
0.566

> <VdW>
0.789

> <VdW6>
-8.847

> <VdW12>
9.636

> <Bond>
0.200

> <Angle>
3.187

> <Pdih>
7.032

> <Idih>
0.001

> <Tether>
0.000

$$$$
VeraChem MOL file


 22 21  0  0  0  0  0  0  0  0999 V2000     
   18.3109   22.0051   21.8854 C   0  0  0  0  0  0  0  0  0  0  0  0
   17.5922   22.4151   20.9954 O   0  5  0  0  0  0  0  0  0  0  0  0
   19.0340   22.7211   22.5495 O   0  0  0  0  0  0  0  0  0  0  0  0
   18.3197   20.5077   22.1712 C   0  0  0  0  0  0  0  0  0  0  0  0
   17.3176   20.1147   21.9626 H   0  0  0  0  0  0  0  0  0  0  0  0
   18.5059   20.3736   23.2428 H   0  0  0  0  0  0  0  0  0  0  0  0
   19.3787   19.7434   21.3352 C   0  0  0  0  0  0  0  0  0  0  0  0
   19.2151   19.9641   20.2714 H   0  0  0  0  0  0  0  0  0  0  0  0
   20.3805   20.1247   21.5738 H   0  0  0  0  0  0  0  0  0  0  0  0
   19.3322   18.2076   21.5338 C   0  0  0  0  0  0  0  0  0  0  0  0
   20.0730   17.7413   20.8710 H   0  0  0  0  0  0  0  0  0  0  0  0
   18.3555   17.8360   21.1955 H   0  0  0  0  0  0  0  0  0  0  0  0
   19.5694   17.7223   22.9882 C   0  0  0  0  0  0  0  0  0  0  0  0
   18.7370   18.0541   23.6225 H   0  0  0  0  0  0  0  0  0  0  0  0
   19.5323   16.6246   23.0011 H   0  0  0  0  0  0  0  0  0  0  0  0
   20.9022   18.1834   23.6277 C   0  0  0  0  0  0  0  0  0  0  0  0
   20.9461   17.8043   24.6579 H   0  0  0  0  0  0  0  0  0  0  0  0
   20.9253   19.2786   23.7058 H   0  0  0  0  0  0  0  0  0  0  0  0
   22.1489   17.6889   22.8628 C   0  0  0  0  0  0  0  0  0  0  0  0
   22.1379   16.5962   22.7587 H   0  0  0  0  0  0  0  0  0  0  0  0
   23.0648   17.9691   23.3987 H   0  0  0  0  0  0  0  0  0  0  0  0
   22.2018   18.1302   21.8596 H   0  0  0  0  0  0  0  0  0  0  0  0
  1  2  1  0  0  0  0
  1  3  2  0  0  0  0
  1  4  1  0  0  0  0
  4  5  1  0  0  0  0
  4  6  1  0  0  0  0
  4  7  1  0  0  0  0
  7  8  1  0  0  0  0
  7  9  1  0  0  0  0
  7 10  1  0  0  0  0
 10 11  1  0  0  0  0
 10 12  1  0  0  0  0
 10 13  1  0  0  0  0
 13 14  1  0  0  0  0
 13 15  1  0  0  0  0
 13 16  1  0  0  0  0
 16 17  1  0  0  0  0
 16 18  1  0  0  0  0
 16 19  1  0  0  0  0
 19 20  1  0  0  0  0
 19 21  1  0  0  0  0
 19 22  1  0  0  0  0
M  END
> <VConfSearch Rank>
540

> <Conf_Id>
56

> <Delta U+W>
0.853

> <U+W>
-52.307

> <U>
8.874

> <W>
-61.181

> <W(PB)>
-63.413

> <W(SA)>
2.232

> <Valence>
8.479

> <Coulomb>
-0.357

> <VdW>
0.753

> <VdW6>
-9.081

> <VdW12>
9.833

> <Bond>
0.221

> <Angle>
3.208

> <Pdih>
5.050

> <Idih>
0.000

> <Tether>
0.000

$$$$
VeraChem MOL file


 22 21  0  0  0  0  0  0  0  0999 V2000     
   17.0503   16.0053   22.4157 C   0  0  0  0  0  0  0  0  0  0  0  0
   16.1279   16.7670   22.1982 O   0  5  0  0  0  0  0  0  0  0  0  0
   16.8970   14.8158   22.6090 O   0  0  0  0  0  0  0  0  0  0  0  0
   18.4829   16.5399   22.4544 C   0  0  0  0  0  0  0  0  0  0  0  0
   19.0599   15.9834   21.7064 H   0  0  0  0  0  0  0  0  0  0  0  0
   18.9003   16.2857   23.4358 H   0  0  0  0  0  0  0  0  0  0  0  0
   18.6285   18.0641   22.2014 C   0  0  0  0  0  0  0  0  0  0  0  0
   18.2028   18.3128   21.2193 H   0  0  0  0  0  0  0  0  0  0  0  0
   18.0433   18.6154   22.9504 H   0  0  0  0  0  0  0  0  0  0  0  0
   20.1036   18.5173   22.2581 C   0  0  0  0  0  0  0  0  0  0  0  0
   20.6866   17.9648   21.5084 H   0  0  0  0  0  0  0  0  0  0  0  0
   20.5270   18.2675   23.2406 H   0  0  0  0  0  0  0  0  0  0  0  0
   20.2461   20.0337   22.0062 C   0  0  0  0  0  0  0  0  0  0  0  0
   19.8227   20.2841   21.0238 H   0  0  0  0  0  0  0  0  0  0  0  0
   19.6632   20.5867   22.7557 H   0  0  0  0  0  0  0  0  0  0  0  0
   21.7199   20.4874   22.0626 C   0  0  0  0  0  0  0  0  0  0  0  0
   22.3057   19.9378   21.3128 H   0  0  0  0  0  0  0  0  0  0  0  0
   22.1463   20.2403   23.0448 H   0  0  0  0  0  0  0  0  0  0  0  0
   21.8579   22.0022   21.8107 C   0  0  0  0  0  0  0  0  0  0  0  0
   21.4674   22.2730   20.8210 H   0  0  0  0  0  0  0  0  0  0  0  0
   22.9115   22.3073   21.8544 H   0  0  0  0  0  0  0  0  0  0  0  0
   21.3068   22.5778   22.5660 H   0  0  0  0  0  0  0  0  0  0  0  0
  1  2  1  0  0  0  0
  1  3  2  0  0  0  0
  1  4  1  0  0  0  0
  4  5  1  0  0  0  0
  4  6  1  0  0  0  0
  4  7  1  0  0  0  0
  7  8  1  0  0  0  0
  7  9  1  0  0  0  0
  7 10  1  0  0  0  0
 10 11  1  0  0  0  0
 10 12  1  0  0  0  0
 10 13  1  0  0  0  0
 13 14  1  0  0  0  0
 13 15  1  0  0  0  0
 13 16  1  0  0  0  0
 16 17  1  0  0  0  0
 16 18  1  0  0  0  0
 16 19  1  0  0  0  0
 19 20  1  0  0  0  0
 19 21  1  0  0  0  0
 19 22  1  0  0  0  0
M  END
> <VConfSearch Rank>
541

> <Conf_Id>
0

> <Delta U+W>
0.000

> <U+W>
-53.159

> <U>
6.763

> <W>
-59.922

> <W(PB)>
-62.256

> <W(SA)>
2.334

> <Valence>
7.600

> <Coulomb>
-2.139

> <VdW>
1.302

> <VdW6>
-6.786

> <VdW12>
8.088

> <Bond>
0.134

> <Angle>
2.720

> <Pdih>
4.746

> <Idih>
0.000

> <Tether>
0.000

$$$$
VeraChem MOL file


 22 21  0  0  0  0  0  0  0  0999 V2000     
   18.3345   19.3270   25.8986 C   0  0  0  0  0  0  0  0  0  0  0  0
   18.9968   20.0342   26.6319 O   0  5  0  0  0  0  0  0  0  0  0  0
   17.7088   18.3586   26.2824 O   0  0  0  0  0  0  0  0  0  0  0  0
   18.3049   19.6600   24.4112 C   0  0  0  0  0  0  0  0  0  0  0  0
   18.3862   20.7483   24.3040 H   0  0  0  0  0  0  0  0  0  0  0  0
   17.3245   19.3676   24.0160 H   0  0  0  0  0  0  0  0  0  0  0  0
   19.4328   18.9586   23.6151 C   0  0  0  0  0  0  0  0  0  0  0  0
   20.4068   19.2514   24.0312 H   0  0  0  0  0  0  0  0  0  0  0  0
   19.3452   17.8708   23.7433 H   0  0  0  0  0  0  0  0  0  0  0  0
   19.3812   19.3116   22.1129 C   0  0  0  0  0  0  0  0  0  0  0  0
   19.4679   20.3998   21.9883 H   0  0  0  0  0  0  0  0  0  0  0  0
   18.4059   19.0189   21.7002 H   0  0  0  0  0  0  0  0  0  0  0  0
   20.5067   18.6111   21.3218 C   0  0  0  0  0  0  0  0  0  0  0  0
   21.4822   18.9037   21.7341 H   0  0  0  0  0  0  0  0  0  0  0  0
   20.4204   17.5229   21.4461 H   0  0  0  0  0  0  0  0  0  0  0  0
   20.4558   18.9634   19.8204 C   0  0  0  0  0  0  0  0  0  0  0  0
   20.5439   20.0512   19.6918 H   0  0  0  0  0  0  0  0  0  0  0  0
   19.4821   18.6704   19.4038 H   0  0  0  0  0  0  0  0  0  0  0  0
   21.5813   18.2620   19.0339 C   0  0  0  0  0  0  0  0  0  0  0  0
   21.4987   17.1705   19.1192 H   0  0  0  0  0  0  0  0  0  0  0  0
   22.5685   18.5615   19.4095 H   0  0  0  0  0  0  0  0  0  0  0  0
   21.5302   18.5235   17.9690 H   0  0  0  0  0  0  0  0  0  0  0  0
  1  2  1  0  0  0  0
  1  3  2  0  0  0  0
  1  4  1  0  0  0  0
  4  5  1  0  0  0  0
  4  6  1  0  0  0  0
  4  7  1  0  0  0  0
  7  8  1  0  0  0  0
  7  9  1  0  0  0  0
  7 10  1  0  0  0  0
 10 11  1  0  0  0  0
 10 12  1  0  0  0  0
 10 13  1  0  0  0  0
 13 14  1  0  0  0  0
 13 15  1  0  0  0  0
 13 16  1  0  0  0  0
 16 17  1  0  0  0  0
 16 18  1  0  0  0  0
 16 19  1  0  0  0  0
 19 20  1  0  0  0  0
 19 21  1  0  0  0  0
 19 22  1  0  0  0  0
M  END
> <VConfSearch Rank>
542

> <Conf_Id>
10

> <Delta U+W>
-1.291

> <U+W>
-54.451

> <U>
5.779

> <W>
-60.230

> <W(PB)>
-62.557

> <W(SA)>
2.328

> <Valence>
7.101

> <Coulomb>
-2.079

> <VdW>
0.757

> <VdW6>
-6.496

> <VdW12>
7.253

> <Bond>
0.100

> <Angle>
2.262

> <Pdih>
4.738

> <Idih>
0.001

> <Tether>
0.000

$$$$
VeraChem MOL file


 22 21  0  0  0  0  0  0  0  0999 V2000     
   22.6001   18.9928   19.4309 C   0  0  0  0  0  0  0  0  0  0  0  0
   22.5380   18.0274   18.6956 O   0  5  0  0  0  0  0  0  0  0  0  0
   23.0522   20.0687   19.0923 O   0  0  0  0  0  0  0  0  0  0  0  0
   22.0616   18.8526   20.8502 C   0  0  0  0  0  0  0  0  0  0  0  0
   22.6550   19.5016   21.5055 H   0  0  0  0  0  0  0  0  0  0  0  0
   22.2301   17.8197   21.1781 H   0  0  0  0  0  0  0  0  0  0  0  0
   20.5591   19.2105   20.9620 C   0  0  0  0  0  0  0  0  0  0  0  0
   20.4057   20.2427   20.6176 H   0  0  0  0  0  0  0  0  0  0  0  0
   19.9803   18.5607   20.2910 H   0  0  0  0  0  0  0  0  0  0  0  0
   20.0384   19.0606   22.4080 C   0  0  0  0  0  0  0  0  0  0  0  0
   20.6174   19.7127   23.0761 H   0  0  0  0  0  0  0  0  0  0  0  0
   20.2029   18.0286   22.7444 H   0  0  0  0  0  0  0  0  0  0  0  0
   18.5374   19.4154   22.5136 C   0  0  0  0  0  0  0  0  0  0  0  0
   18.3791   20.4240   22.1078 H   0  0  0  0  0  0  0  0  0  0  0  0
   17.9502   18.7317   21.8853 H   0  0  0  0  0  0  0  0  0  0  0  0
   17.9974   19.3789   23.9621 C   0  0  0  0  0  0  0  0  0  0  0  0
   16.9650   19.7548   23.9630 H   0  0  0  0  0  0  0  0  0  0  0  0
   18.5784   20.0664   24.5923 H   0  0  0  0  0  0  0  0  0  0  0  0
   18.0120   17.9659   24.5846 C   0  0  0  0  0  0  0  0  0  0  0  0
   17.5388   17.9779   25.5750 H   0  0  0  0  0  0  0  0  0  0  0  0
   19.0365   17.5942   24.7110 H   0  0  0  0  0  0  0  0  0  0  0  0
   17.4619   17.2538   23.9558 H   0  0  0  0  0  0  0  0  0  0  0  0
  1  2  1  0  0  0  0
  1  3  2  0  0  0  0
  1  4  1  0  0  0  0
  4  5  1  0  0  0  0
  4  6  1  0  0  0  0
  4  7  1  0  0  0  0
  7  8  1  0  0  0  0
  7  9  1  0  0  0  0
  7 10  1  0  0  0  0
 10 11  1  0  0  0  0
 10 12  1  0  0  0  0
 10 13  1  0  0  0  0
 13 14  1  0  0  0  0
 13 15  1  0  0  0  0
 13 16  1  0  0  0  0
 16 17  1  0  0  0  0
 16 18  1  0  0  0  0
 16 19  1  0  0  0  0
 19 20  1  0  0  0  0
 19 21  1  0  0  0  0
 19 22  1  0  0  0  0
M  END
> <VConfSearch Rank>
543

> <Conf_Id>
37

> <Delta U+W>
-0.345

> <U+W>
-53.504

> <U>
6.751

> <W>
-60.255

> <W(PB)>
-62.592

> <W(SA)>
2.336

> <Valence>
7.602

> <Coulomb>
-1.744

> <VdW>
0.894

> <VdW6>
-7.110

> <VdW12>
8.004

> <Bond>
0.131

> <Angle>
2.489

> <Pdih>
4.982

> <Idih>
0.001

> <Tether>
0.000

$$$$
VeraChem MOL file


 22 21  0  0  0  0  0  0  0  0999 V2000     
   18.6043   22.7043   22.2511 C   0  0  0  0  0  0  0  0  0  0  0  0
   19.1919   23.3949   21.4423 O   0  5  0  0  0  0  0  0  0  0  0  0
   18.1129   23.1371   23.2747 O   0  0  0  0  0  0  0  0  0  0  0  0
   18.4963   21.2085   21.9772 C   0  0  0  0  0  0  0  0  0  0  0  0
   18.4398   21.0641   20.8915 H   0  0  0  0  0  0  0  0  0  0  0  0
   17.5499   20.8518   22.4013 H   0  0  0  0  0  0  0  0  0  0  0  0
   19.6818   20.4023   22.5626 C   0  0  0  0  0  0  0  0  0  0  0  0
   20.6223   20.7795   22.1376 H   0  0  0  0  0  0  0  0  0  0  0  0
   19.7325   20.5684   23.6477 H   0  0  0  0  0  0  0  0  0  0  0  0
   19.5489   18.8915   22.2721 C   0  0  0  0  0  0  0  0  0  0  0  0
   19.4917   18.7376   21.1866 H   0  0  0  0  0  0  0  0  0  0  0  0
   18.6090   18.5168   22.6999 H   0  0  0  0  0  0  0  0  0  0  0  0
   20.7366   18.0918   22.8551 C   0  0  0  0  0  0  0  0  0  0  0  0
   21.6736   18.4295   22.3915 H   0  0  0  0  0  0  0  0  0  0  0  0
   20.8233   18.3118   23.9280 H   0  0  0  0  0  0  0  0  0  0  0  0
   20.5939   16.5622   22.6778 C   0  0  0  0  0  0  0  0  0  0  0  0
   19.6608   16.2197   23.1460 H   0  0  0  0  0  0  0  0  0  0  0  0
   21.4122   16.0670   23.2185 H   0  0  0  0  0  0  0  0  0  0  0  0
   20.6300   16.1119   21.2012 C   0  0  0  0  0  0  0  0  0  0  0  0
   21.5411   16.4690   20.7037 H   0  0  0  0  0  0  0  0  0  0  0  0
   19.7629   16.4902   20.6456 H   0  0  0  0  0  0  0  0  0  0  0  0
   20.6153   15.0164   21.1337 H   0  0  0  0  0  0  0  0  0  0  0  0
  1  2  1  0  0  0  0
  1  3  2  0  0  0  0
  1  4  1  0  0  0  0
  4  5  1  0  0  0  0
  4  6  1  0  0  0  0
  4  7  1  0  0  0  0
  7  8  1  0  0  0  0
  7  9  1  0  0  0  0
  7 10  1  0  0  0  0
 10 11  1  0  0  0  0
 10 12  1  0  0  0  0
 10 13  1  0  0  0  0
 13 14  1  0  0  0  0
 13 15  1  0  0  0  0
 13 16  1  0  0  0  0
 16 17  1  0  0  0  0
 16 18  1  0  0  0  0
 16 19  1  0  0  0  0
 19 20  1  0  0  0  0
 19 21  1  0  0  0  0
 19 22  1  0  0  0  0
M  END
> <VConfSearch Rank>
544

> <Conf_Id>
38

> <Delta U+W>
-0.439

> <U+W>
-53.598

> <U>
6.751

> <W>
-60.350

> <W(PB)>
-62.659

> <W(SA)>
2.309

> <Valence>
7.602

> <Coulomb>
-1.744

> <VdW>
0.893

> <VdW6>
-7.110

> <VdW12>
8.004

> <Bond>
0.131

> <Angle>
2.489

> <Pdih>
4.981

> <Idih>
0.001

> <Tether>
0.000

$$$$
VeraChem MOL file


 22 21  0  0  0  0  0  0  0  0999 V2000     
   20.7216   15.9091   24.1873 C   0  0  0  0  0  0  0  0  0  0  0  0
   20.8281   15.8852   25.3976 O   0  5  0  0  0  0  0  0  0  0  0  0
   21.2116   15.0746   23.4523 O   0  0  0  0  0  0  0  0  0  0  0  0
   19.9500   17.0619   23.5550 C   0  0  0  0  0  0  0  0  0  0  0  0
   19.1582   17.3633   24.2512 H   0  0  0  0  0  0  0  0  0  0  0  0
   19.4615   16.6792   22.6521 H   0  0  0  0  0  0  0  0  0  0  0  0
   20.8552   18.2751   23.2167 C   0  0  0  0  0  0  0  0  0  0  0  0
   21.4018   18.5687   24.1236 H   0  0  0  0  0  0  0  0  0  0  0  0
   21.6143   17.9737   22.4817 H   0  0  0  0  0  0  0  0  0  0  0  0
   20.0757   19.5038   22.6902 C   0  0  0  0  0  0  0  0  0  0  0  0
   20.7770   20.3448   22.6173 H   0  0  0  0  0  0  0  0  0  0  0  0
   19.3123   19.7972   23.4235 H   0  0  0  0  0  0  0  0  0  0  0  0
   19.4123   19.2669   21.3111 C   0  0  0  0  0  0  0  0  0  0  0  0
   20.1756   18.9718   20.5784 H   0  0  0  0  0  0  0  0  0  0  0  0
   18.7085   18.4281   21.3832 H   0  0  0  0  0  0  0  0  0  0  0  0
   18.6370   20.4967   20.7833 C   0  0  0  0  0  0  0  0  0  0  0  0
   17.8800   20.8021   21.5187 H   0  0  0  0  0  0  0  0  0  0  0  0
   18.0885   20.2038   19.8774 H   0  0  0  0  0  0  0  0  0  0  0  0
   19.5470   21.6972   20.4437 C   0  0  0  0  0  0  0  0  0  0  0  0
   20.0259   22.1053   21.3423 H   0  0  0  0  0  0  0  0  0  0  0  0
   18.9614   22.5043   19.9848 H   0  0  0  0  0  0  0  0  0  0  0  0
   20.3337   21.4061   19.7354 H   0  0  0  0  0  0  0  0  0  0  0  0
  1  2  1  0  0  0  0
  1  3  2  0  0  0  0
  1  4  1  0  0  0  0
  4  5  1  0  0  0  0
  4  6  1  0  0  0  0
  4  7  1  0  0  0  0
  7  8  1  0  0  0  0
  7  9  1  0  0  0  0
  7 10  1  0  0  0  0
 10 11  1  0  0  0  0
 10 12  1  0  0  0  0
 10 13  1  0  0  0  0
 13 14  1  0  0  0  0
 13 15  1  0  0  0  0
 13 16  1  0  0  0  0
 16 17  1  0  0  0  0
 16 18  1  0  0  0  0
 16 19  1  0  0  0  0
 19 20  1  0  0  0  0
 19 21  1  0  0  0  0
 19 22  1  0  0  0  0
M  END
> <VConfSearch Rank>
545

> <Conf_Id>
60

> <Delta U+W>
0.386

> <U+W>
-52.773

> <U>
7.689

> <W>
-60.463

> <W(PB)>
-62.772

> <W(SA)>
2.309

> <Valence>
8.197

> <Coulomb>
-1.561

> <VdW>
1.053

> <VdW6>
-7.737

> <VdW12>
8.790

> <Bond>
0.181

> <Angle>
2.780

> <Pdih>
5.235

> <Idih>
0.001

> <Tether>
0.000

$$$$
VeraChem MOL file


 22 21  0  0  0  0  0  0  0  0999 V2000     
   17.0274   16.4372   22.2218 C   0  0  0  0  0  0  0  0  0  0  0  0
   17.2990   15.5002   22.9462 O   0  5  0  0  0  0  0  0  0  0  0  0
   16.1663   16.3978   21.3653 O   0  0  0  0  0  0  0  0  0  0  0  0
   17.8263   17.7259   22.3808 C   0  0  0  0  0  0  0  0  0  0  0  0
   18.0868   17.8269   23.4402 H   0  0  0  0  0  0  0  0  0  0  0  0
   17.1701   18.5664   22.1250 H   0  0  0  0  0  0  0  0  0  0  0  0
   19.1008   17.7541   21.4974 C   0  0  0  0  0  0  0  0  0  0  0  0
   19.7728   16.9375   21.7954 H   0  0  0  0  0  0  0  0  0  0  0  0
   18.8110   17.5526   20.4568 H   0  0  0  0  0  0  0  0  0  0  0  0
   19.8607   19.1013   21.5464 C   0  0  0  0  0  0  0  0  0  0  0  0
   19.1840   19.9163   21.2559 H   0  0  0  0  0  0  0  0  0  0  0  0
   20.6545   19.0708   20.7892 H   0  0  0  0  0  0  0  0  0  0  0  0
   20.4828   19.4068   22.9312 C   0  0  0  0  0  0  0  0  0  0  0  0
   19.6898   19.4407   23.6889 H   0  0  0  0  0  0  0  0  0  0  0  0
   21.1581   18.5908   23.2224 H   0  0  0  0  0  0  0  0  0  0  0  0
   21.2460   20.7511   22.9784 C   0  0  0  0  0  0  0  0  0  0  0  0
   21.5345   20.9549   24.0189 H   0  0  0  0  0  0  0  0  0  0  0  0
   20.5770   21.5688   22.6766 H   0  0  0  0  0  0  0  0  0  0  0  0
   22.5166   20.7674   22.1009 C   0  0  0  0  0  0  0  0  0  0  0  0
   23.1852   19.9368   22.3620 H   0  0  0  0  0  0  0  0  0  0  0  0
   23.0700   21.7044   22.2450 H   0  0  0  0  0  0  0  0  0  0  0  0
   22.2697   20.6893   21.0349 H   0  0  0  0  0  0  0  0  0  0  0  0
  1  2  1  0  0  0  0
  1  3  2  0  0  0  0
  1  4  1  0  0  0  0
  4  5  1  0  0  0  0
  4  6  1  0  0  0  0
  4  7  1  0  0  0  0
  7  8  1  0  0  0  0
  7  9  1  0  0  0  0
  7 10  1  0  0  0  0
 10 11  1  0  0  0  0
 10 12  1  0  0  0  0
 10 13  1  0  0  0  0
 13 14  1  0  0  0  0
 13 15  1  0  0  0  0
 13 16  1  0  0  0  0
 16 17  1  0  0  0  0
 16 18  1  0  0  0  0
 16 19  1  0  0  0  0
 19 20  1  0  0  0  0
 19 21  1  0  0  0  0
 19 22  1  0  0  0  0
M  END
> <VConfSearch Rank>
546

> <Conf_Id>
28

> <Delta U+W>
0.351

> <U+W>
-52.808

> <U>
7.689

> <W>
-60.498

> <W(PB)>
-62.768

> <W(SA)>
2.270

> <Valence>
8.197

> <Coulomb>
-1.561

> <VdW>
1.053

> <VdW6>
-7.737

> <VdW12>
8.791

> <Bond>
0.181

> <Angle>
2.780

> <Pdih>
5.235

> <Idih>
0.001

> <Tether>
0.000

$$$$
VeraChem MOL file


 22 21  0  0  0  0  0  0  0  0999 V2000     
   21.2600   22.2438   23.2163 C   0  0  0  0  0  0  0  0  0  0  0  0
   22.4570   22.4109   23.0902 O   0  5  0  0  0  0  0  0  0  0  0  0
   20.4284   23.0741   22.9072 O   0  0  0  0  0  0  0  0  0  0  0  0
   20.7739   20.9111   23.7746 C   0  0  0  0  0  0  0  0  0  0  0  0
   19.8502   21.0936   24.3368 H   0  0  0  0  0  0  0  0  0  0  0  0
   21.5223   20.5480   24.4893 H   0  0  0  0  0  0  0  0  0  0  0  0
   20.5276   19.8512   22.6727 C   0  0  0  0  0  0  0  0  0  0  0  0
   19.7914   20.2453   21.9598 H   0  0  0  0  0  0  0  0  0  0  0  0
   21.4590   19.6863   22.1135 H   0  0  0  0  0  0  0  0  0  0  0  0
   20.0312   18.5122   23.2659 C   0  0  0  0  0  0  0  0  0  0  0  0
   19.0729   18.6671   23.7802 H   0  0  0  0  0  0  0  0  0  0  0  0
   20.7437   18.1749   24.0311 H   0  0  0  0  0  0  0  0  0  0  0  0
   19.8776   17.3904   22.2116 C   0  0  0  0  0  0  0  0  0  0  0  0
   20.8368   17.2323   21.6999 H   0  0  0  0  0  0  0  0  0  0  0  0
   19.6459   16.4518   22.7335 H   0  0  0  0  0  0  0  0  0  0  0  0
   18.7712   17.6708   21.1697 C   0  0  0  0  0  0  0  0  0  0  0  0
   19.0222   18.5634   20.5819 H   0  0  0  0  0  0  0  0  0  0  0  0
   17.8229   17.8809   21.6834 H   0  0  0  0  0  0  0  0  0  0  0  0
   18.5811   16.4773   20.2120 C   0  0  0  0  0  0  0  0  0  0  0  0
   18.2906   15.5732   20.7630 H   0  0  0  0  0  0  0  0  0  0  0  0
   19.5079   16.2623   19.6642 H   0  0  0  0  0  0  0  0  0  0  0  0
   17.7950   16.6929   19.4767 H   0  0  0  0  0  0  0  0  0  0  0  0
  1  2  1  0  0  0  0
  1  3  2  0  0  0  0
  1  4  1  0  0  0  0
  4  5  1  0  0  0  0
  4  6  1  0  0  0  0
  4  7  1  0  0  0  0
  7  8  1  0  0  0  0
  7  9  1  0  0  0  0
  7 10  1  0  0  0  0
 10 11  1  0  0  0  0
 10 12  1  0  0  0  0
 10 13  1  0  0  0  0
 13 14  1  0  0  0  0
 13 15  1  0  0  0  0
 13 16  1  0  0  0  0
 16 17  1  0  0  0  0
 16 18  1  0  0  0  0
 16 19  1  0  0  0  0
 19 20  1  0  0  0  0
 19 21  1  0  0  0  0
 19 22  1  0  0  0  0
M  END
> <VConfSearch Rank>
547

> <Conf_Id>
50

> <Delta U+W>
-0.486

> <U+W>
-53.646

> <U>
7.026

> <W>
-60.672

> <W(PB)>
-62.964

> <W(SA)>
2.292

> <Valence>
7.637

> <Coulomb>
-1.488

> <VdW>
0.877

> <VdW6>
-7.165

> <VdW12>
8.043

> <Bond>
0.134

> <Angle>
2.513

> <Pdih>
4.990

> <Idih>
0.001

> <Tether>
0.000

$$$$
VeraChem MOL file


 22 21  0  0  0  0  0  0  0  0999 V2000     
   20.2759   17.4413   25.6047 C   0  0  0  0  0  0  0  0  0  0  0  0
   20.0687   16.2469   25.6884 O   0  5  0  0  0  0  0  0  0  0  0  0
   19.9304   18.2451   26.4479 O   0  0  0  0  0  0  0  0  0  0  0  0
   20.9909   17.9626   24.3632 C   0  0  0  0  0  0  0  0  0  0  0  0
   21.6968   17.1930   24.0284 H   0  0  0  0  0  0  0  0  0  0  0  0
   21.5813   18.8401   24.6532 H   0  0  0  0  0  0  0  0  0  0  0  0
   20.0162   18.3299   23.2172 C   0  0  0  0  0  0  0  0  0  0  0  0
   19.4265   17.4437   22.9447 H   0  0  0  0  0  0  0  0  0  0  0  0
   19.3085   19.0858   23.5823 H   0  0  0  0  0  0  0  0  0  0  0  0
   20.7671   18.8595   21.9735 C   0  0  0  0  0  0  0  0  0  0  0  0
   21.5223   18.1210   21.6714 H   0  0  0  0  0  0  0  0  0  0  0  0
   21.3148   19.7757   22.2333 H   0  0  0  0  0  0  0  0  0  0  0  0
   19.8409   19.1349   20.7653 C   0  0  0  0  0  0  0  0  0  0  0  0
   20.4663   19.3838   19.8971 H   0  0  0  0  0  0  0  0  0  0  0  0
   19.2959   18.2179   20.5027 H   0  0  0  0  0  0  0  0  0  0  0  0
   18.8381   20.2857   21.0069 C   0  0  0  0  0  0  0  0  0  0  0  0
   19.3791   21.1890   21.3209 H   0  0  0  0  0  0  0  0  0  0  0  0
   18.1506   20.0239   21.8220 H   0  0  0  0  0  0  0  0  0  0  0  0
   18.0170   20.5955   19.7390 C   0  0  0  0  0  0  0  0  0  0  0  0
   17.4437   19.7159   19.4181 H   0  0  0  0  0  0  0  0  0  0  0  0
   18.6711   20.8994   18.9113 H   0  0  0  0  0  0  0  0  0  0  0  0
   17.3078   21.4120   19.9275 H   0  0  0  0  0  0  0  0  0  0  0  0
  1  2  1  0  0  0  0
  1  3  2  0  0  0  0
  1  4  1  0  0  0  0
  4  5  1  0  0  0  0
  4  6  1  0  0  0  0
  4  7  1  0  0  0  0
  7  8  1  0  0  0  0
  7  9  1  0  0  0  0
  7 10  1  0  0  0  0
 10 11  1  0  0  0  0
 10 12  1  0  0  0  0
 10 13  1  0  0  0  0
 13 14  1  0  0  0  0
 13 15  1  0  0  0  0
 13 16  1  0  0  0  0
 16 17  1  0  0  0  0
 16 18  1  0  0  0  0
 16 19  1  0  0  0  0
 19 20  1  0  0  0  0
 19 21  1  0  0  0  0
 19 22  1  0  0  0  0
M  END
> <VConfSearch Rank>
548

> <Conf_Id>
51

> <Delta U+W>
-0.517

> <U+W>
-53.677

> <U>
7.026

> <W>
-60.703

> <W(PB)>
-63.007

> <W(SA)>
2.304

> <Valence>
7.638

> <Coulomb>
-1.488

> <VdW>
0.877

> <VdW6>
-7.165

> <VdW12>
8.042

> <Bond>
0.134

> <Angle>
2.513

> <Pdih>
4.990

> <Idih>
0.001

> <Tether>
0.000

$$$$
VeraChem MOL file


 22 21  0  0  0  0  0  0  0  0999 V2000     
   16.8869   17.2939   22.4596 C   0  0  0  0  0  0  0  0  0  0  0  0
   15.9803   17.9921   22.0503 O   0  5  0  0  0  0  0  0  0  0  0  0
   17.2071   16.2393   21.9478 O   0  0  0  0  0  0  0  0  0  0  0  0
   17.6515   17.7600   23.6955 C   0  0  0  0  0  0  0  0  0  0  0  0
   18.1738   16.8988   24.1296 H   0  0  0  0  0  0  0  0  0  0  0  0
   16.9112   18.0879   24.4348 H   0  0  0  0  0  0  0  0  0  0  0  0
   18.6537   18.9111   23.4204 C   0  0  0  0  0  0  0  0  0  0  0  0
   18.1211   19.7550   22.9602 H   0  0  0  0  0  0  0  0  0  0  0  0
   19.0523   19.2730   24.3778 H   0  0  0  0  0  0  0  0  0  0  0  0
   19.8257   18.4744   22.5131 C   0  0  0  0  0  0  0  0  0  0  0  0
   19.4358   18.1268   21.5463 H   0  0  0  0  0  0  0  0  0  0  0  0
   20.3466   17.6223   22.9711 H   0  0  0  0  0  0  0  0  0  0  0  0
   20.8268   19.6260   22.2783 C   0  0  0  0  0  0  0  0  0  0  0  0
   20.3052   20.4776   21.8202 H   0  0  0  0  0  0  0  0  0  0  0  0
   21.2203   19.9734   23.2434 H   0  0  0  0  0  0  0  0  0  0  0  0
   21.9971   19.1909   21.3717 C   0  0  0  0  0  0  0  0  0  0  0  0
   21.6074   18.8443   20.4045 H   0  0  0  0  0  0  0  0  0  0  0  0
   22.5224   18.3401   21.8275 H   0  0  0  0  0  0  0  0  0  0  0  0
   22.9943   20.3436   21.1389 C   0  0  0  0  0  0  0  0  0  0  0  0
   22.5020   21.1971   20.6546 H   0  0  0  0  0  0  0  0  0  0  0  0
   23.8194   20.0168   20.4927 H   0  0  0  0  0  0  0  0  0  0  0  0
   23.4239   20.6891   22.0884 H   0  0  0  0  0  0  0  0  0  0  0  0
  1  2  1  0  0  0  0
  1  3  2  0  0  0  0
  1  4  1  0  0  0  0
  4  5  1  0  0  0  0
  4  6  1  0  0  0  0
  4  7  1  0  0  0  0
  7  8  1  0  0  0  0
  7  9  1  0  0  0  0
  7 10  1  0  0  0  0
 10 11  1  0  0  0  0
 10 12  1  0  0  0  0
 10 13  1  0  0  0  0
 13 14  1  0  0  0  0
 13 15  1  0  0  0  0
 13 16  1  0  0  0  0
 16 17  1  0  0  0  0
 16 18  1  0  0  0  0
 16 19  1  0  0  0  0
 19 20  1  0  0  0  0
 19 21  1  0  0  0  0
 19 22  1  0  0  0  0
M  END
> <VConfSearch Rank>
549

> <Conf_Id>
43

> <Delta U+W>
-0.129

> <U+W>
-53.289

> <U>
7.937

> <W>
-61.225

> <W(PB)>
-63.523

> <W(SA)>
2.297

> <Valence>
7.358

> <Coulomb>
-0.022

> <VdW>
0.601

> <VdW6>
-7.363

> <VdW12>
7.964

> <Bond>
0.121

> <Angle>
2.425

> <Pdih>
4.811

> <Idih>
0.000

> <Tether>
0.000

$$$$
VeraChem MOL file


 22 21  0  0  0  0  0  0  0  0999 V2000     
   22.2146   16.7765   21.6995 C   0  0  0  0  0  0  0  0  0  0  0  0
   22.8937   17.0705   20.7355 O   0  5  0  0  0  0  0  0  0  0  0  0
   21.5508   15.7610   21.7698 O   0  0  0  0  0  0  0  0  0  0  0  0
   22.2111   17.7272   22.8934 C   0  0  0  0  0  0  0  0  0  0  0  0
   23.2522   18.0073   23.0925 H   0  0  0  0  0  0  0  0  0  0  0  0
   21.8551   17.1808   23.7752 H   0  0  0  0  0  0  0  0  0  0  0  0
   21.3626   19.0073   22.6779 C   0  0  0  0  0  0  0  0  0  0  0  0
   21.5277   19.6906   23.5220 H   0  0  0  0  0  0  0  0  0  0  0  0
   21.7127   19.5284   21.7760 H   0  0  0  0  0  0  0  0  0  0  0  0
   19.8522   18.7054   22.5549 C   0  0  0  0  0  0  0  0  0  0  0  0
   19.5101   18.1729   23.4530 H   0  0  0  0  0  0  0  0  0  0  0  0
   19.6770   18.0356   21.7017 H   0  0  0  0  0  0  0  0  0  0  0  0
   19.0242   19.9956   22.3727 C   0  0  0  0  0  0  0  0  0  0  0  0
   19.1955   20.6658   23.2262 H   0  0  0  0  0  0  0  0  0  0  0  0
   19.3668   20.5274   21.4744 H   0  0  0  0  0  0  0  0  0  0  0  0
   17.5158   19.6947   22.2490 C   0  0  0  0  0  0  0  0  0  0  0  0
   17.1691   19.1642   23.1466 H   0  0  0  0  0  0  0  0  0  0  0  0
   17.3403   19.0258   21.3950 H   0  0  0  0  0  0  0  0  0  0  0  0
   16.6923   20.9854   22.0665 C   0  0  0  0  0  0  0  0  0  0  0  0
   16.8246   21.6601   22.9225 H   0  0  0  0  0  0  0  0  0  0  0  0
   15.6229   20.7530   21.9803 H   0  0  0  0  0  0  0  0  0  0  0  0
   16.9972   21.5206   21.1577 H   0  0  0  0  0  0  0  0  0  0  0  0
  1  2  1  0  0  0  0
  1  3  2  0  0  0  0
  1  4  1  0  0  0  0
  4  5  1  0  0  0  0
  4  6  1  0  0  0  0
  4  7  1  0  0  0  0
  7  8  1  0  0  0  0
  7  9  1  0  0  0  0
  7 10  1  0  0  0  0
 10 11  1  0  0  0  0
 10 12  1  0  0  0  0
 10 13  1  0  0  0  0
 13 14  1  0  0  0  0
 13 15  1  0  0  0  0
 13 16  1  0  0  0  0
 16 17  1  0  0  0  0
 16 18  1  0  0  0  0
 16 19  1  0  0  0  0
 19 20  1  0  0  0  0
 19 21  1  0  0  0  0
 19 22  1  0  0  0  0
M  END
> <VConfSearch Rank>
550

> <Conf_Id>
44

> <Delta U+W>
-0.155

> <U+W>
-53.314

> <U>
7.937

> <W>
-61.252

> <W(PB)>
-63.556

> <W(SA)>
2.304

> <Valence>
7.358

> <Coulomb>
-0.021

> <VdW>
0.600

> <VdW6>
-7.363

> <VdW12>
7.964

> <Bond>
0.121

> <Angle>
2.425

> <Pdih>
4.811

> <Idih>
0.001

> <Tether>
0.000

$$$$
VeraChem MOL file


 22 21  0  0  0  0  0  0  0  0999 V2000     
   22.4277   18.6525   24.5808 C   0  0  0  0  0  0  0  0  0  0  0  0
   23.5013   18.7017   24.0136 O   0  5  0  0  0  0  0  0  0  0  0  0
   22.1210   17.7758   25.3645 O   0  0  0  0  0  0  0  0  0  0  0  0
   21.4181   19.7639   24.3071 C   0  0  0  0  0  0  0  0  0  0  0  0
   21.9580   20.7166   24.3610 H   0  0  0  0  0  0  0  0  0  0  0  0
   20.6780   19.7724   25.1165 H   0  0  0  0  0  0  0  0  0  0  0  0
   20.7076   19.6489   22.9333 C   0  0  0  0  0  0  0  0  0  0  0  0
   20.1264   20.5644   22.7651 H   0  0  0  0  0  0  0  0  0  0  0  0
   21.4624   19.6009   22.1362 H   0  0  0  0  0  0  0  0  0  0  0  0
   19.7754   18.4165   22.8481 C   0  0  0  0  0  0  0  0  0  0  0  0
   18.9958   18.4873   23.6189 H   0  0  0  0  0  0  0  0  0  0  0  0
   20.3538   17.5107   23.0762 H   0  0  0  0  0  0  0  0  0  0  0  0
   19.1170   18.2358   21.4597 C   0  0  0  0  0  0  0  0  0  0  0  0
   19.8970   18.1652   20.6892 H   0  0  0  0  0  0  0  0  0  0  0  0
   18.5839   17.2753   21.4505 H   0  0  0  0  0  0  0  0  0  0  0  0
   18.1244   19.3629   21.0952 C   0  0  0  0  0  0  0  0  0  0  0  0
   18.6521   20.3225   21.0194 H   0  0  0  0  0  0  0  0  0  0  0  0
   17.3761   19.4699   21.8925 H   0  0  0  0  0  0  0  0  0  0  0  0
   17.4108   19.0770   19.7584 C   0  0  0  0  0  0  0  0  0  0  0  0
   18.1348   18.9919   18.9375 H   0  0  0  0  0  0  0  0  0  0  0  0
   16.7123   19.8872   19.5119 H   0  0  0  0  0  0  0  0  0  0  0  0
   16.8392   18.1410   19.8100 H   0  0  0  0  0  0  0  0  0  0  0  0
  1  2  1  0  0  0  0
  1  3  2  0  0  0  0
  1  4  1  0  0  0  0
  4  5  1  0  0  0  0
  4  6  1  0  0  0  0
  4  7  1  0  0  0  0
  7  8  1  0  0  0  0
  7  9  1  0  0  0  0
  7 10  1  0  0  0  0
 10 11  1  0  0  0  0
 10 12  1  0  0  0  0
 10 13  1  0  0  0  0
 13 14  1  0  0  0  0
 13 15  1  0  0  0  0
 13 16  1  0  0  0  0
 16 17  1  0  0  0  0
 16 18  1  0  0  0  0
 16 19  1  0  0  0  0
 19 20  1  0  0  0  0
 19 21  1  0  0  0  0
 19 22  1  0  0  0  0
M  END
> <VConfSearch Rank>
551

> <Conf_Id>
53

> <Delta U+W>
0.723

> <U+W>
-52.436

> <U>
8.587

> <W>
-61.022

> <W(PB)>
-63.285

> <W(SA)>
2.263

> <Valence>
7.933

> <Coulomb>
-0.124

> <VdW>
0.778

> <VdW6>
-7.981

> <VdW12>
8.759

> <Bond>
0.160

> <Angle>
2.698

> <Pdih>
5.074

> <Idih>
0.001

> <Tether>
0.000

$$$$
VeraChem MOL file


 22 21  0  0  0  0  0  0  0  0999 V2000     
   17.3130   21.2643   22.2602 C   0  0  0  0  0  0  0  0  0  0  0  0
   17.7250   22.2672   21.7115 O   0  5  0  0  0  0  0  0  0  0  0  0
   16.1644   21.1241   22.6312 O   0  0  0  0  0  0  0  0  0  0  0  0
   18.2849   20.1095   22.4750 C   0  0  0  0  0  0  0  0  0  0  0  0
   17.9852   19.5764   23.3850 H   0  0  0  0  0  0  0  0  0  0  0  0
   19.2762   20.5402   22.6552 H   0  0  0  0  0  0  0  0  0  0  0  0
   18.3324   19.1334   21.2724 C   0  0  0  0  0  0  0  0  0  0  0  0
   17.3063   18.8250   21.0288 H   0  0  0  0  0  0  0  0  0  0  0  0
   18.7108   19.6664   20.3893 H   0  0  0  0  0  0  0  0  0  0  0  0
   19.1830   17.8614   21.5154 C   0  0  0  0  0  0  0  0  0  0  0  0
   19.1001   17.2321   20.6187 H   0  0  0  0  0  0  0  0  0  0  0  0
   18.7525   17.2703   22.3353 H   0  0  0  0  0  0  0  0  0  0  0  0
   20.6864   18.1305   21.7785 C   0  0  0  0  0  0  0  0  0  0  0  0
   21.2711   17.3285   21.3074 H   0  0  0  0  0  0  0  0  0  0  0  0
   20.9948   19.0629   21.2860 H   0  0  0  0  0  0  0  0  0  0  0  0
   21.0484   18.1695   23.2812 C   0  0  0  0  0  0  0  0  0  0  0  0
   20.7867   17.2095   23.7472 H   0  0  0  0  0  0  0  0  0  0  0  0
   20.4643   18.9393   23.7995 H   0  0  0  0  0  0  0  0  0  0  0  0
   22.5504   18.4453   23.4938 C   0  0  0  0  0  0  0  0  0  0  0  0
   23.1639   17.6677   23.0202 H   0  0  0  0  0  0  0  0  0  0  0  0
   22.7927   18.4630   24.5643 H   0  0  0  0  0  0  0  0  0  0  0  0
   22.8355   19.4153   23.0657 H   0  0  0  0  0  0  0  0  0  0  0  0
  1  2  1  0  0  0  0
  1  3  2  0  0  0  0
  1  4  1  0  0  0  0
  4  5  1  0  0  0  0
  4  6  1  0  0  0  0
  4  7  1  0  0  0  0
  7  8  1  0  0  0  0
  7  9  1  0  0  0  0
  7 10  1  0  0  0  0
 10 11  1  0  0  0  0
 10 12  1  0  0  0  0
 10 13  1  0  0  0  0
 13 14  1  0  0  0  0
 13 15  1  0  0  0  0
 13 16  1  0  0  0  0
 16 17  1  0  0  0  0
 16 18  1  0  0  0  0
 16 19  1  0  0  0  0
 19 20  1  0  0  0  0
 19 21  1  0  0  0  0
 19 22  1  0  0  0  0
M  END
> <VConfSearch Rank>
552

> <Conf_Id>
5

> <Delta U+W>
2.167

> <U+W>
-50.993

> <U>
10.045

> <W>
-61.037

> <W(PB)>
-63.303

> <W(SA)>
2.266

> <Valence>
10.100

> <Coulomb>
-0.883

> <VdW>
0.828

> <VdW6>
-8.177

> <VdW12>
9.005

> <Bond>
0.182

> <Angle>
2.988

> <Pdih>
6.930

> <Idih>
0.001

> <Tether>
0.000

$$$$
VeraChem MOL file


 22 21  0  0  0  0  0  0  0  0999 V2000     
   22.8984   20.2267   21.8213 C   0  0  0  0  0  0  0  0  0  0  0  0
   23.2107   20.0494   20.6604 O   0  5  0  0  0  0  0  0  0  0  0  0
   23.6321   20.7366   22.6448 O   0  0  0  0  0  0  0  0  0  0  0  0
   21.5188   19.7634   22.2752 C   0  0  0  0  0  0  0  0  0  0  0  0
   20.8315   19.8941   21.4317 H   0  0  0  0  0  0  0  0  0  0  0  0
   21.1840   20.4275   23.0809 H   0  0  0  0  0  0  0  0  0  0  0  0
   21.5082   18.2901   22.7552 C   0  0  0  0  0  0  0  0  0  0  0  0
   21.7685   17.6340   21.9132 H   0  0  0  0  0  0  0  0  0  0  0  0
   22.3015   18.1583   23.5040 H   0  0  0  0  0  0  0  0  0  0  0  0
   20.1653   17.8302   23.3761 C   0  0  0  0  0  0  0  0  0  0  0  0
   19.9460   18.4172   24.2785 H   0  0  0  0  0  0  0  0  0  0  0  0
   20.2971   16.7947   23.7188 H   0  0  0  0  0  0  0  0  0  0  0  0
   18.9585   17.8668   22.4045 C   0  0  0  0  0  0  0  0  0  0  0  0
   19.3027   17.7330   21.3698 H   0  0  0  0  0  0  0  0  0  0  0  0
   18.3091   17.0082   22.6237 H   0  0  0  0  0  0  0  0  0  0  0  0
   18.1107   19.1539   22.5282 C   0  0  0  0  0  0  0  0  0  0  0  0
   18.7276   20.0420   22.3458 H   0  0  0  0  0  0  0  0  0  0  0  0
   17.7263   19.2436   23.5536 H   0  0  0  0  0  0  0  0  0  0  0  0
   16.9271   19.1483   21.5401 C   0  0  0  0  0  0  0  0  0  0  0  0
   17.2824   19.0920   20.5028 H   0  0  0  0  0  0  0  0  0  0  0  0
   16.3313   20.0644   21.6449 H   0  0  0  0  0  0  0  0  0  0  0  0
   16.2660   18.2912   21.7233 H   0  0  0  0  0  0  0  0  0  0  0  0
  1  2  1  0  0  0  0
  1  3  2  0  0  0  0
  1  4  1  0  0  0  0
  4  5  1  0  0  0  0
  4  6  1  0  0  0  0
  4  7  1  0  0  0  0
  7  8  1  0  0  0  0
  7  9  1  0  0  0  0
  7 10  1  0  0  0  0
 10 11  1  0  0  0  0
 10 12  1  0  0  0  0
 10 13  1  0  0  0  0
 13 14  1  0  0  0  0
 13 15  1  0  0  0  0
 13 16  1  0  0  0  0
 16 17  1  0  0  0  0
 16 18  1  0  0  0  0
 16 19  1  0  0  0  0
 19 20  1  0  0  0  0
 19 21  1  0  0  0  0
 19 22  1  0  0  0  0
M  END
> <VConfSearch Rank>
553

> <Conf_Id>
6

> <Delta U+W>
2.118

> <U+W>
-51.042

> <U>
10.045

> <W>
-61.086

> <W(PB)>
-63.356

> <W(SA)>
2.270

> <Valence>
10.100

> <Coulomb>
-0.883

> <VdW>
0.828

> <VdW6>
-8.177

> <VdW12>
9.004

> <Bond>
0.182

> <Angle>
2.988

> <Pdih>
6.930

> <Idih>
0.001

> <Tether>
0.000

$$$$
VeraChem MOL file


 22 21  0  0  0  0  0  0  0  0999 V2000     
   20.8596   21.0375   21.3419 C   0  0  0  0  0  0  0  0  0  0  0  0
   20.0762   21.4435   20.5059 O   0  5  0  0  0  0  0  0  0  0  0  0
   21.8830   20.4420   21.0681 O   0  0  0  0  0  0  0  0  0  0  0  0
   20.5811   21.3530   22.8104 C   0  0  0  0  0  0  0  0  0  0  0  0
   20.6102   22.4449   22.9018 H   0  0  0  0  0  0  0  0  0  0  0  0
   21.4054   20.9650   23.4210 H   0  0  0  0  0  0  0  0  0  0  0  0
   19.2191   20.8363   23.3536 C   0  0  0  0  0  0  0  0  0  0  0  0
   18.9716   21.4153   24.2536 H   0  0  0  0  0  0  0  0  0  0  0  0
   18.4214   21.0495   22.6285 H   0  0  0  0  0  0  0  0  0  0  0  0
   19.2002   19.3361   23.7383 C   0  0  0  0  0  0  0  0  0  0  0  0
   18.2500   19.1260   24.2482 H   0  0  0  0  0  0  0  0  0  0  0  0
   19.9944   19.1318   24.4693 H   0  0  0  0  0  0  0  0  0  0  0  0
   19.3412   18.3753   22.5360 C   0  0  0  0  0  0  0  0  0  0  0  0
   18.6124   18.6460   21.7597 H   0  0  0  0  0  0  0  0  0  0  0  0
   20.3387   18.4789   22.0906 H   0  0  0  0  0  0  0  0  0  0  0  0
   19.1299   16.9045   22.9533 C   0  0  0  0  0  0  0  0  0  0  0  0
   18.1305   16.7832   23.3936 H   0  0  0  0  0  0  0  0  0  0  0  0
   19.8570   16.6327   23.7311 H   0  0  0  0  0  0  0  0  0  0  0  0
   19.2801   15.9469   21.7542 C   0  0  0  0  0  0  0  0  0  0  0  0
   18.5432   16.1769   20.9736 H   0  0  0  0  0  0  0  0  0  0  0  0
   19.1280   14.9062   22.0684 H   0  0  0  0  0  0  0  0  0  0  0  0
   20.2824   16.0252   21.3128 H   0  0  0  0  0  0  0  0  0  0  0  0
  1  2  1  0  0  0  0
  1  3  2  0  0  0  0
  1  4  1  0  0  0  0
  4  5  1  0  0  0  0
  4  6  1  0  0  0  0
  4  7  1  0  0  0  0
  7  8  1  0  0  0  0
  7  9  1  0  0  0  0
  7 10  1  0  0  0  0
 10 11  1  0  0  0  0
 10 12  1  0  0  0  0
 10 13  1  0  0  0  0
 13 14  1  0  0  0  0
 13 15  1  0  0  0  0
 13 16  1  0  0  0  0
 16 17  1  0  0  0  0
 16 18  1  0  0  0  0
 16 19  1  0  0  0  0
 19 20  1  0  0  0  0
 19 21  1  0  0  0  0
 19 22  1  0  0  0  0
M  END
> <VConfSearch Rank>
554

> <Conf_Id>
8

> <Delta U+W>
1.886

> <U+W>
-51.274

> <U>
11.237

> <W>
-62.510

> <W(PB)>
-64.777

> <W(SA)>
2.267

> <Valence>
9.029

> <Coulomb>
1.667

> <VdW>
0.540

> <VdW6>
-8.825

> <VdW12>
9.365

> <Bond>
0.186

> <Angle>
3.195

> <Pdih>
5.642

> <Idih>
0.007

> <Tether>
0.000

$$$$
VeraChem MOL file


 22 21  0  0  0  0  0  0  0  0999 V2000     
   22.4777   19.3064   21.1886 C   0  0  0  0  0  0  0  0  0  0  0  0
   22.9836   18.8847   22.2099 O   0  5  0  0  0  0  0  0  0  0  0  0
   22.8641   20.3023   20.6087 O   0  0  0  0  0  0  0  0  0  0  0  0
   21.3131   18.5280   20.5828 C   0  0  0  0  0  0  0  0  0  0  0  0
   21.2731   17.5367   21.0479 H   0  0  0  0  0  0  0  0  0  0  0  0
   21.5472   18.3635   19.5246 H   0  0  0  0  0  0  0  0  0  0  0  0
   19.9403   19.2459   20.6984 C   0  0  0  0  0  0  0  0  0  0  0  0
   19.9958   20.1984   20.1534 H   0  0  0  0  0  0  0  0  0  0  0  0
   19.1752   18.6448   20.1888 H   0  0  0  0  0  0  0  0  0  0  0  0
   19.4815   19.5305   22.1500 C   0  0  0  0  0  0  0  0  0  0  0  0
   18.5564   20.1188   22.1032 H   0  0  0  0  0  0  0  0  0  0  0  0
   20.2244   20.1613   22.6569 H   0  0  0  0  0  0  0  0  0  0  0  0
   19.2358   18.2476   22.9815 C   0  0  0  0  0  0  0  0  0  0  0  0
   18.5080   17.6048   22.4680 H   0  0  0  0  0  0  0  0  0  0  0  0
   20.1695   17.6743   23.0474 H   0  0  0  0  0  0  0  0  0  0  0  0
   18.7496   18.5329   24.4217 C   0  0  0  0  0  0  0  0  0  0  0  0
   19.4684   19.1886   24.9324 H   0  0  0  0  0  0  0  0  0  0  0  0
   18.7395   17.5881   24.9824 H   0  0  0  0  0  0  0  0  0  0  0  0
   17.3391   19.1587   24.4818 C   0  0  0  0  0  0  0  0  0  0  0  0
   17.3256   20.1627   24.0400 H   0  0  0  0  0  0  0  0  0  0  0  0
   17.0047   19.2506   25.5232 H   0  0  0  0  0  0  0  0  0  0  0  0
   16.6100   18.5364   23.9467 H   0  0  0  0  0  0  0  0  0  0  0  0
  1  2  1  0  0  0  0
  1  3  2  0  0  0  0
  1  4  1  0  0  0  0
  4  5  1  0  0  0  0
  4  6  1  0  0  0  0
  4  7  1  0  0  0  0
  7  8  1  0  0  0  0
  7  9  1  0  0  0  0
  7 10  1  0  0  0  0
 10 11  1  0  0  0  0
 10 12  1  0  0  0  0
 10 13  1  0  0  0  0
 13 14  1  0  0  0  0
 13 15  1  0  0  0  0
 13 16  1  0  0  0  0
 16 17  1  0  0  0  0
 16 18  1  0  0  0  0
 16 19  1  0  0  0  0
 19 20  1  0  0  0  0
 19 21  1  0  0  0  0
 19 22  1  0  0  0  0
M  END
> <VConfSearch Rank>
555

> <Conf_Id>
93

> <Delta U+W>
1.836

> <U+W>
-51.323

> <U>
10.427

> <W>
-61.751

> <W(PB)>
-63.980

> <W(SA)>
2.230

> <Valence>
8.446

> <Coulomb>
1.306

> <VdW>
0.676

> <VdW6>
-8.928

> <VdW12>
9.604

> <Bond>
0.209

> <Angle>
3.066

> <Pdih>
5.170

> <Idih>
0.001

> <Tether>
0.000

$$$$
VeraChem MOL file


 22 21  0  0  0  0  0  0  0  0999 V2000     
   19.2755   16.0725   22.7288 C   0  0  0  0  0  0  0  0  0  0  0  0
   18.1987   15.5259   22.8664 O   0  5  0  0  0  0  0  0  0  0  0  0
   20.1609   16.0315   23.5601 O   0  0  0  0  0  0  0  0  0  0  0  0
   19.5387   16.8253   21.4276 C   0  0  0  0  0  0  0  0  0  0  0  0
   19.2730   16.1530   20.6034 H   0  0  0  0  0  0  0  0  0  0  0  0
   20.6152   17.0103   21.3401 H   0  0  0  0  0  0  0  0  0  0  0  0
   18.7393   18.1498   21.2866 C   0  0  0  0  0  0  0  0  0  0  0  0
   18.9453   18.5922   20.3026 H   0  0  0  0  0  0  0  0  0  0  0  0
   17.6661   17.9145   21.2990 H   0  0  0  0  0  0  0  0  0  0  0  0
   19.0303   19.1990   22.3881 C   0  0  0  0  0  0  0  0  0  0  0  0
   18.7930   18.7771   23.3743 H   0  0  0  0  0  0  0  0  0  0  0  0
   18.3455   20.0435   22.2401 H   0  0  0  0  0  0  0  0  0  0  0  0
   20.4913   19.7116   22.3805 C   0  0  0  0  0  0  0  0  0  0  0  0
   21.1720   18.8681   22.5540 H   0  0  0  0  0  0  0  0  0  0  0  0
   20.7387   20.1164   21.3898 H   0  0  0  0  0  0  0  0  0  0  0  0
   20.7727   20.7807   23.4621 C   0  0  0  0  0  0  0  0  0  0  0  0
   21.8526   20.9818   23.4842 H   0  0  0  0  0  0  0  0  0  0  0  0
   20.5112   20.3835   24.4527 H   0  0  0  0  0  0  0  0  0  0  0  0
   20.0268   22.1111   23.2202 C   0  0  0  0  0  0  0  0  0  0  0  0
   18.9407   21.9851   23.3098 H   0  0  0  0  0  0  0  0  0  0  0  0
   20.2467   22.5088   22.2209 H   0  0  0  0  0  0  0  0  0  0  0  0
   20.3350   22.8629   23.9582 H   0  0  0  0  0  0  0  0  0  0  0  0
  1  2  1  0  0  0  0
  1  3  2  0  0  0  0
  1  4  1  0  0  0  0
  4  5  1  0  0  0  0
  4  6  1  0  0  0  0
  4  7  1  0  0  0  0
  7  8  1  0  0  0  0
  7  9  1  0  0  0  0
  7 10  1  0  0  0  0
 10 11  1  0  0  0  0
 10 12  1  0  0  0  0
 10 13  1  0  0  0  0
 13 14  1  0  0  0  0
 13 15  1  0  0  0  0
 13 16  1  0  0  0  0
 16 17  1  0  0  0  0
 16 18  1  0  0  0  0
 16 19  1  0  0  0  0
 19 20  1  0  0  0  0
 19 21  1  0  0  0  0
 19 22  1  0  0  0  0
M  END
> <VConfSearch Rank>
556

> <Conf_Id>
70

> <Delta U+W>
1.803

> <U+W>
-51.356

> <U>
10.428

> <W>
-61.784

> <W(PB)>
-64.014

> <W(SA)>
2.230

> <Valence>
8.445

> <Coulomb>
1.306

> <VdW>
0.676

> <VdW6>
-8.929

> <VdW12>
9.605

> <Bond>
0.209

> <Angle>
3.066

> <Pdih>
5.170

> <Idih>
0.001

> <Tether>
0.000

$$$$
VeraChem MOL file


 22 21  0  0  0  0  0  0  0  0999 V2000     
   17.2467   20.0090   20.3526 C   0  0  0  0  0  0  0  0  0  0  0  0
   17.7368   20.9375   19.7405 O   0  5  0  0  0  0  0  0  0  0  0  0
   16.2220   20.0967   21.0001 O   0  0  0  0  0  0  0  0  0  0  0  0
   17.9465   18.6544   20.2858 C   0  0  0  0  0  0  0  0  0  0  0  0
   18.2167   18.4756   19.2384 H   0  0  0  0  0  0  0  0  0  0  0  0
   17.2276   17.8748   20.5655 H   0  0  0  0  0  0  0  0  0  0  0  0
   19.2154   18.5570   21.1719 C   0  0  0  0  0  0  0  0  0  0  0  0
   19.7236   17.6058   20.9639 H   0  0  0  0  0  0  0  0  0  0  0  0
   19.9104   19.3578   20.8869 H   0  0  0  0  0  0  0  0  0  0  0  0
   18.8905   18.6429   22.6824 C   0  0  0  0  0  0  0  0  0  0  0  0
   18.1287   17.8901   22.9269 H   0  0  0  0  0  0  0  0  0  0  0  0
   18.4444   19.6202   22.9132 H   0  0  0  0  0  0  0  0  0  0  0  0
   20.1206   18.4103   23.5914 C   0  0  0  0  0  0  0  0  0  0  0  0
   19.7789   18.3660   24.6346 H   0  0  0  0  0  0  0  0  0  0  0  0
   20.5638   17.4303   23.3680 H   0  0  0  0  0  0  0  0  0  0  0  0
   21.1977   19.5110   23.4630 C   0  0  0  0  0  0  0  0  0  0  0  0
   20.7428   20.4963   23.6345 H   0  0  0  0  0  0  0  0  0  0  0  0
   21.6091   19.5208   22.4451 H   0  0  0  0  0  0  0  0  0  0  0  0
   22.3483   19.2962   24.4668 C   0  0  0  0  0  0  0  0  0  0  0  0
   21.9780   19.3191   25.5002 H   0  0  0  0  0  0  0  0  0  0  0  0
   23.1059   20.0835   24.3610 H   0  0  0  0  0  0  0  0  0  0  0  0
   22.8392   18.3285   24.2997 H   0  0  0  0  0  0  0  0  0  0  0  0
  1  2  1  0  0  0  0
  1  3  2  0  0  0  0
  1  4  1  0  0  0  0
  4  5  1  0  0  0  0
  4  6  1  0  0  0  0
  4  7  1  0  0  0  0
  7  8  1  0  0  0  0
  7  9  1  0  0  0  0
  7 10  1  0  0  0  0
 10 11  1  0  0  0  0
 10 12  1  0  0  0  0
 10 13  1  0  0  0  0
 13 14  1  0  0  0  0
 13 15  1  0  0  0  0
 13 16  1  0  0  0  0
 16 17  1  0  0  0  0
 16 18  1  0  0  0  0
 16 19  1  0  0  0  0
 19 20  1  0  0  0  0
 19 21  1  0  0  0  0
 19 22  1  0  0  0  0
M  END
> <VConfSearch Rank>
557

> <Conf_Id>
85

> <Delta U+W>
0.707

> <U+W>
-52.452

> <U>
8.925

> <W>
-61.378

> <W(PB)>
-63.661

> <W(SA)>
2.283

> <Valence>
7.881

> <Coulomb>
0.349

> <VdW>
0.695

> <VdW6>
-8.049

> <VdW12>
8.743

> <Bond>
0.156

> <Angle>
2.660

> <Pdih>
5.064

> <Idih>
0.001

> <Tether>
0.000

$$$$
VeraChem MOL file


 22 21  0  0  0  0  0  0  0  0999 V2000     
   20.8738   15.7178   22.0324 C   0  0  0  0  0  0  0  0  0  0  0  0
   20.7779   15.3232   20.8869 O   0  5  0  0  0  0  0  0  0  0  0  0
   21.8642   15.5566   22.7180 O   0  0  0  0  0  0  0  0  0  0  0  0
   19.6780   16.4346   22.6533 C   0  0  0  0  0  0  0  0  0  0  0  0
   19.5216   16.0057   23.6501 H   0  0  0  0  0  0  0  0  0  0  0  0
   18.7835   16.2008   22.0633 H   0  0  0  0  0  0  0  0  0  0  0  0
   19.8536   17.9710   22.7735 C   0  0  0  0  0  0  0  0  0  0  0  0
   19.0210   18.3683   23.3674 H   0  0  0  0  0  0  0  0  0  0  0  0
   20.7776   18.1907   23.3259 H   0  0  0  0  0  0  0  0  0  0  0  0
   19.8823   18.6761   21.3976 C   0  0  0  0  0  0  0  0  0  0  0  0
   18.9211   18.5222   20.8887 H   0  0  0  0  0  0  0  0  0  0  0  0
   20.6438   18.2008   20.7644 H   0  0  0  0  0  0  0  0  0  0  0  0
   20.1920   20.1927   21.4664 C   0  0  0  0  0  0  0  0  0  0  0  0
   21.1929   20.3537   21.8896 H   0  0  0  0  0  0  0  0  0  0  0  0
   20.2413   20.5661   20.4344 H   0  0  0  0  0  0  0  0  0  0  0  0
   19.1427   21.0355   22.2337 C   0  0  0  0  0  0  0  0  0  0  0  0
   18.1566   20.5535   22.1843 H   0  0  0  0  0  0  0  0  0  0  0  0
   19.0340   22.0052   21.7286 H   0  0  0  0  0  0  0  0  0  0  0  0
   19.5349   21.3048   23.7036 C   0  0  0  0  0  0  0  0  0  0  0  0
   19.6462   20.3754   24.2736 H   0  0  0  0  0  0  0  0  0  0  0  0
   18.7679   21.9128   24.2003 H   0  0  0  0  0  0  0  0  0  0  0  0
   20.4850   21.8518   23.7597 H   0  0  0  0  0  0  0  0  0  0  0  0
  1  2  1  0  0  0  0
  1  3  2  0  0  0  0
  1  4  1  0  0  0  0
  4  5  1  0  0  0  0
  4  6  1  0  0  0  0
  4  7  1  0  0  0  0
  7  8  1  0  0  0  0
  7  9  1  0  0  0  0
  7 10  1  0  0  0  0
 10 11  1  0  0  0  0
 10 12  1  0  0  0  0
 10 13  1  0  0  0  0
 13 14  1  0  0  0  0
 13 15  1  0  0  0  0
 13 16  1  0  0  0  0
 16 17  1  0  0  0  0
 16 18  1  0  0  0  0
 16 19  1  0  0  0  0
 19 20  1  0  0  0  0
 19 21  1  0  0  0  0
 19 22  1  0  0  0  0
M  END
> <VConfSearch Rank>
558

> <Conf_Id>
82

> <Delta U+W>
3.438

> <U+W>
-49.721

> <U>
11.773

> <W>
-61.495

> <W(PB)>
-63.749

> <W(SA)>
2.254

> <Valence>
10.419

> <Coulomb>
0.565

> <VdW>
0.789

> <VdW6>
-8.847

> <VdW12>
9.636

> <Bond>
0.200

> <Angle>
3.187

> <Pdih>
7.032

> <Idih>
0.001

> <Tether>
0.000

$$$$
VeraChem MOL file


 22 21  0  0  0  0  0  0  0  0999 V2000     
   17.0907   18.2096   20.7653 C   0  0  0  0  0  0  0  0  0  0  0  0
   16.1965   18.8611   21.2683 O   0  5  0  0  0  0  0  0  0  0  0  0
   17.2533   18.1055   19.5654 O   0  0  0  0  0  0  0  0  0  0  0  0
   18.0464   17.4636   21.6924 C   0  0  0  0  0  0  0  0  0  0  0  0
   18.5517   16.6782   21.1173 H   0  0  0  0  0  0  0  0  0  0  0  0
   17.4375   16.9590   22.4517 H   0  0  0  0  0  0  0  0  0  0  0  0
   19.0915   18.3735   22.3891 C   0  0  0  0  0  0  0  0  0  0  0  0
   18.5735   19.1827   22.9222 H   0  0  0  0  0  0  0  0  0  0  0  0
   19.6201   17.7775   23.1436 H   0  0  0  0  0  0  0  0  0  0  0  0
   20.1175   18.9690   21.3973 C   0  0  0  0  0  0  0  0  0  0  0  0
   19.5807   19.4714   20.5810 H   0  0  0  0  0  0  0  0  0  0  0  0
   20.6900   18.1550   20.9321 H   0  0  0  0  0  0  0  0  0  0  0  0
   21.0955   19.9905   22.0303 C   0  0  0  0  0  0  0  0  0  0  0  0
   21.7309   20.3817   21.2240 H   0  0  0  0  0  0  0  0  0  0  0  0
   20.5387   20.8550   22.4168 H   0  0  0  0  0  0  0  0  0  0  0  0
   22.0177   19.4100   23.1314 C   0  0  0  0  0  0  0  0  0  0  0  0
   23.0037   19.8882   23.0516 H   0  0  0  0  0  0  0  0  0  0  0  0
   22.1844   18.3371   22.9626 H   0  0  0  0  0  0  0  0  0  0  0  0
   21.4851   19.6513   24.5614 C   0  0  0  0  0  0  0  0  0  0  0  0
   21.3850   20.7255   24.7641 H   0  0  0  0  0  0  0  0  0  0  0  0
   22.1764   19.2328   25.3042 H   0  0  0  0  0  0  0  0  0  0  0  0
   20.5053   19.1857   24.7164 H   0  0  0  0  0  0  0  0  0  0  0  0
  1  2  1  0  0  0  0
  1  3  2  0  0  0  0
  1  4  1  0  0  0  0
  4  5  1  0  0  0  0
  4  6  1  0  0  0  0
  4  7  1  0  0  0  0
  7  8  1  0  0  0  0
  7  9  1  0  0  0  0
  7 10  1  0  0  0  0
 10 11  1  0  0  0  0
 10 12  1  0  0  0  0
 10 13  1  0  0  0  0
 13 14  1  0  0  0  0
 13 15  1  0  0  0  0
 13 16  1  0  0  0  0
 16 17  1  0  0  0  0
 16 18  1  0  0  0  0
 16 19  1  0  0  0  0
 19 20  1  0  0  0  0
 19 21  1  0  0  0  0
 19 22  1  0  0  0  0
M  END
> <VConfSearch Rank>
559

> <Conf_Id>
94

> <Delta U+W>
3.471

> <U+W>
-49.688

> <U>
11.773

> <W>
-61.461

> <W(PB)>
-63.710

> <W(SA)>
2.248

> <Valence>
10.419

> <Coulomb>
0.566

> <VdW>
0.789

> <VdW6>
-8.847

> <VdW12>
9.636

> <Bond>
0.200

> <Angle>
3.187

> <Pdih>
7.032

> <Idih>
0.001

> <Tether>
0.000

$$$$
VeraChem MOL file


 22 21  0  0  0  0  0  0  0  0999 V2000     
   21.7254   21.8025   22.4306 C   0  0  0  0  0  0  0  0  0  0  0  0
   21.5077   22.9583   22.1250 O   0  5  0  0  0  0  0  0  0  0  0  0
   22.8231   21.2853   22.3671 O   0  0  0  0  0  0  0  0  0  0  0  0
   20.5528   20.9495   22.9012 C   0  0  0  0  0  0  0  0  0  0  0  0
   19.8479   21.6011   23.4309 H   0  0  0  0  0  0  0  0  0  0  0  0
   20.9375   20.2257   23.6287 H   0  0  0  0  0  0  0  0  0  0  0  0
   19.8353   20.2204   21.7359 C   0  0  0  0  0  0  0  0  0  0  0  0
   19.5351   20.9645   20.9854 H   0  0  0  0  0  0  0  0  0  0  0  0
   20.5427   19.5488   21.2314 H   0  0  0  0  0  0  0  0  0  0  0  0
   18.5777   19.4324   22.1807 C   0  0  0  0  0  0  0  0  0  0  0  0
   18.1021   18.9927   21.2941 H   0  0  0  0  0  0  0  0  0  0  0  0
   17.8439   20.1389   22.5917 H   0  0  0  0  0  0  0  0  0  0  0  0
   18.8332   18.3183   23.2299 C   0  0  0  0  0  0  0  0  0  0  0  0
   19.1551   18.7756   24.1746 H   0  0  0  0  0  0  0  0  0  0  0  0
   17.8792   17.8210   23.4514 H   0  0  0  0  0  0  0  0  0  0  0  0
   19.8693   17.2456   22.8131 C   0  0  0  0  0  0  0  0  0  0  0  0
   19.9853   16.5310   23.6393 H   0  0  0  0  0  0  0  0  0  0  0  0
   20.8554   17.7075   22.6703 H   0  0  0  0  0  0  0  0  0  0  0  0
   19.4668   16.4715   21.5393 C   0  0  0  0  0  0  0  0  0  0  0  0
   18.4754   16.0145   21.6543 H   0  0  0  0  0  0  0  0  0  0  0  0
   20.1876   15.6698   21.3330 H   0  0  0  0  0  0  0  0  0  0  0  0
   19.4428   17.1313   20.6629 H   0  0  0  0  0  0  0  0  0  0  0  0
  1  2  1  0  0  0  0
  1  3  2  0  0  0  0
  1  4  1  0  0  0  0
  4  5  1  0  0  0  0
  4  6  1  0  0  0  0
  4  7  1  0  0  0  0
  7  8  1  0  0  0  0
  7  9  1  0  0  0  0
  7 10  1  0  0  0  0
 10 11  1  0  0  0  0
 10 12  1  0  0  0  0
 10 13  1  0  0  0  0
 13 14  1  0  0  0  0
 13 15  1  0  0  0  0
 13 16  1  0  0  0  0
 16 17  1  0  0  0  0
 16 18  1  0  0  0  0
 16 19  1  0  0  0  0
 19 20  1  0  0  0  0
 19 21  1  0  0  0  0
 19 22  1  0  0  0  0
M  END
> <VConfSearch Rank>
560

> <Conf_Id>
56

> <Delta U+W>
0.853

> <U+W>
-52.307

> <U>
8.874

> <W>
-61.181

> <W(PB)>
-63.413

> <W(SA)>
2.232

> <Valence>
8.479

> <Coulomb>
-0.357

> <VdW>
0.753

> <VdW6>
-9.081

> <VdW12>
9.833

> <Bond>
0.221

> <Angle>
3.208

> <Pdih>
5.050

> <Idih>
0.000

> <Tether>
0.000

$$$$
VeraChem MOL file


 22 21  0  0  0  0  0  0  0  0999 V2000     
   23.7311   19.6843   21.3610 C   0  0  0  0  0  0  0  0  0  0  0  0
   24.1088   19.1363   22.3786 O   0  5  0  0  0  0  0  0  0  0  0  0
   24.4903   20.1926   20.5602 O   0  0  0  0  0  0  0  0  0  0  0  0
   22.2359   19.7535   21.0463 C   0  0  0  0  0  0  0  0  0  0  0  0
   22.0854   19.2814   20.0683 H   0  0  0  0  0  0  0  0  0  0  0  0
   21.9738   20.8123   20.9353 H   0  0  0  0  0  0  0  0  0  0  0  0
   21.3063   19.0905   22.0973 C   0  0  0  0  0  0  0  0  0  0  0  0
   21.5783   18.0316   22.2081 H   0  0  0  0  0  0  0  0  0  0  0  0
   21.4664   19.5640   23.0759 H   0  0  0  0  0  0  0  0  0  0  0  0
   19.8181   19.2059   21.7017 C   0  0  0  0  0  0  0  0  0  0  0  0
   19.6604   18.7319   20.7231 H   0  0  0  0  0  0  0  0  0  0  0  0
   19.5485   20.2653   21.5913 H   0  0  0  0  0  0  0  0  0  0  0  0
   18.8951   18.5459   22.7485 C   0  0  0  0  0  0  0  0  0  0  0  0
   19.1643   17.4864   22.8593 H   0  0  0  0  0  0  0  0  0  0  0  0
   19.0524   19.0196   23.7273 H   0  0  0  0  0  0  0  0  0  0  0  0
   17.4078   18.6608   22.3538 C   0  0  0  0  0  0  0  0  0  0  0  0
   17.2462   18.1861   21.3760 H   0  0  0  0  0  0  0  0  0  0  0  0
   17.1343   19.7193   22.2440 H   0  0  0  0  0  0  0  0  0  0  0  0
   16.4895   18.0005   23.4017 C   0  0  0  0  0  0  0  0  0  0  0  0
   16.7204   16.9326   23.5091 H   0  0  0  0  0  0  0  0  0  0  0  0
   15.4364   18.0914   23.1053 H   0  0  0  0  0  0  0  0  0  0  0  0
   16.6076   18.4773   24.3836 H   0  0  0  0  0  0  0  0  0  0  0  0
  1  2  1  0  0  0  0
  1  3  2  0  0  0  0
  1  4  1  0  0  0  0
  4  5  1  0  0  0  0
  4  6  1  0  0  0  0
  4  7  1  0  0  0  0
  7  8  1  0  0  0  0
  7  9  1  0  0  0  0
  7 10  1  0  0  0  0
 10 11  1  0  0  0  0
 10 12  1  0  0  0  0
 10 13  1  0  0  0  0
 13 14  1  0  0  0  0
 13 15  1  0  0  0  0
 13 16  1  0  0  0  0
 16 17  1  0  0  0  0
 16 18  1  0  0  0  0
 16 19  1  0  0  0  0
 19 20  1  0  0  0  0
 19 21  1  0  0  0  0
 19 22  1  0  0  0  0
M  END
> <VConfSearch Rank>
561

> <Conf_Id>
0

> <Delta U+W>
0.000

> <U+W>
-53.159

> <U>
6.763

> <W>
-59.922

> <W(PB)>
-62.256

> <W(SA)>
2.334

> <Valence>
7.600

> <Coulomb>
-2.139

> <VdW>
1.302

> <VdW6>
-6.786

> <VdW12>
8.088

> <Bond>
0.134

> <Angle>
2.720

> <Pdih>
4.746

> <Idih>
0.000

> <Tether>
0.000

$$$$
VeraChem MOL file


 22 21  0  0  0  0  0  0  0  0999 V2000     
   20.2261   15.3192   23.7815 C   0  0  0  0  0  0  0  0  0  0  0  0
   21.0116   14.6021   23.1938 O   0  5  0  0  0  0  0  0  0  0  0  0
   19.2371   14.9068   24.3545 O   0  0  0  0  0  0  0  0  0  0  0  0
   20.4837   16.8218   23.7809 C   0  0  0  0  0  0  0  0  0  0  0  0
   21.5686   16.9815   23.7684 H   0  0  0  0  0  0  0  0  0  0  0  0
   20.1065   17.2325   24.7251 H   0  0  0  0  0  0  0  0  0  0  0  0
   19.8231   17.5450   22.5815 C   0  0  0  0  0  0  0  0  0  0  0  0
   20.2014   17.1135   21.6444 H   0  0  0  0  0  0  0  0  0  0  0  0
   18.7393   17.3645   22.6011 H   0  0  0  0  0  0  0  0  0  0  0  0
   20.0984   19.0641   22.6037 C   0  0  0  0  0  0  0  0  0  0  0  0
   21.1826   19.2410   22.5852 H   0  0  0  0  0  0  0  0  0  0  0  0
   19.7202   19.4921   23.5423 H   0  0  0  0  0  0  0  0  0  0  0  0
   19.4386   19.7824   21.4070 C   0  0  0  0  0  0  0  0  0  0  0  0
   19.8166   19.3546   20.4682 H   0  0  0  0  0  0  0  0  0  0  0  0
   18.3544   19.6057   21.4251 H   0  0  0  0  0  0  0  0  0  0  0  0
   19.7134   21.3006   21.4284 C   0  0  0  0  0  0  0  0  0  0  0  0
   20.7971   21.4814   21.4084 H   0  0  0  0  0  0  0  0  0  0  0  0
   19.3348   21.7325   22.3653 H   0  0  0  0  0  0  0  0  0  0  0  0
   19.0528   22.0142   20.2319 C   0  0  0  0  0  0  0  0  0  0  0  0
   17.9637   21.8763   20.2446 H   0  0  0  0  0  0  0  0  0  0  0  0
   19.4369   21.6232   19.2805 H   0  0  0  0  0  0  0  0  0  0  0  0
   19.2583   23.0922   20.2628 H   0  0  0  0  0  0  0  0  0  0  0  0
  1  2  1  0  0  0  0
  1  3  2  0  0  0  0
  1  4  1  0  0  0  0
  4  5  1  0  0  0  0
  4  6  1  0  0  0  0
  4  7  1  0  0  0  0
  7  8  1  0  0  0  0
  7  9  1  0  0  0  0
  7 10  1  0  0  0  0
 10 11  1  0  0  0  0
 10 12  1  0  0  0  0
 10 13  1  0  0  0  0
 13 14  1  0  0  0  0
 13 15  1  0  0  0  0
 13 16  1  0  0  0  0
 16 17  1  0  0  0  0
 16 18  1  0  0  0  0
 16 19  1  0  0  0  0
 19 20  1  0  0  0  0
 19 21  1  0  0  0  0
 19 22  1  0  0  0  0
M  END
> <VConfSearch Rank>
562

> <Conf_Id>
10

> <Delta U+W>
-1.291

> <U+W>
-54.451

> <U>
5.779

> <W>
-60.230

> <W(PB)>
-62.557

> <W(SA)>
2.328

> <Valence>
7.101

> <Coulomb>
-2.079

> <VdW>
0.757

> <VdW6>
-6.496

> <VdW12>
7.253

> <Bond>
0.100

> <Angle>
2.262

> <Pdih>
4.738

> <Idih>
0.001

> <Tether>
0.000

$$$$
VeraChem MOL file


 22 21  0  0  0  0  0  0  0  0999 V2000     
   17.1924   19.9402   24.8406 C   0  0  0  0  0  0  0  0  0  0  0  0
   16.6816   21.0166   24.6017 O   0  5  0  0  0  0  0  0  0  0  0  0
   16.6366   19.0538   25.4585 O   0  0  0  0  0  0  0  0  0  0  0  0
   18.6006   19.6797   24.3179 C   0  0  0  0  0  0  0  0  0  0  0  0
   19.1092   19.0142   25.0258 H   0  0  0  0  0  0  0  0  0  0  0  0
   19.1458   20.6313   24.3186 H   0  0  0  0  0  0  0  0  0  0  0  0
   18.6107   19.0590   22.8992 C   0  0  0  0  0  0  0  0  0  0  0  0
   18.0497   18.1143   22.9128 H   0  0  0  0  0  0  0  0  0  0  0  0
   18.0872   19.7312   22.2051 H   0  0  0  0  0  0  0  0  0  0  0  0
   20.0473   18.8052   22.3930 C   0  0  0  0  0  0  0  0  0  0  0  0
   20.5675   18.1314   23.0875 H   0  0  0  0  0  0  0  0  0  0  0  0
   20.6005   19.7534   22.3901 H   0  0  0  0  0  0  0  0  0  0  0  0
   20.0520   18.1890   20.9750 C   0  0  0  0  0  0  0  0  0  0  0  0
   19.4362   17.2792   20.9786 H   0  0  0  0  0  0  0  0  0  0  0  0
   19.5774   18.8832   20.2680 H   0  0  0  0  0  0  0  0  0  0  0  0
   21.4664   17.8222   20.4688 C   0  0  0  0  0  0  0  0  0  0  0  0
   21.3712   17.2869   19.5140 H   0  0  0  0  0  0  0  0  0  0  0  0
   21.9419   17.1229   21.1703 H   0  0  0  0  0  0  0  0  0  0  0  0
   22.3789   19.0504   20.2609 C   0  0  0  0  0  0  0  0  0  0  0  0
   23.3364   18.7465   19.8184 H   0  0  0  0  0  0  0  0  0  0  0  0
   22.5973   19.5528   21.2115 H   0  0  0  0  0  0  0  0  0  0  0  0
   21.9104   19.7782   19.5857 H   0  0  0  0  0  0  0  0  0  0  0  0
  1  2  1  0  0  0  0
  1  3  2  0  0  0  0
  1  4  1  0  0  0  0
  4  5  1  0  0  0  0
  4  6  1  0  0  0  0
  4  7  1  0  0  0  0
  7  8  1  0  0  0  0
  7  9  1  0  0  0  0
  7 10  1  0  0  0  0
 10 11  1  0  0  0  0
 10 12  1  0  0  0  0
 10 13  1  0  0  0  0
 13 14  1  0  0  0  0
 13 15  1  0  0  0  0
 13 16  1  0  0  0  0
 16 17  1  0  0  0  0
 16 18  1  0  0  0  0
 16 19  1  0  0  0  0
 19 20  1  0  0  0  0
 19 21  1  0  0  0  0
 19 22  1  0  0  0  0
M  END
> <VConfSearch Rank>
563

> <Conf_Id>
37

> <Delta U+W>
-0.345

> <U+W>
-53.504

> <U>
6.751

> <W>
-60.255

> <W(PB)>
-62.592

> <W(SA)>
2.336

> <Valence>
7.602

> <Coulomb>
-1.744

> <VdW>
0.894

> <VdW6>
-7.110

> <VdW12>
8.004

> <Bond>
0.131

> <Angle>
2.489

> <Pdih>
4.982

> <Idih>
0.001

> <Tether>
0.000

$$$$
VeraChem MOL file


 22 21  0  0  0  0  0  0  0  0999 V2000     
   17.4488   15.9778   22.9055 C   0  0  0  0  0  0  0  0  0  0  0  0
   16.8200   16.0999   23.9380 O   0  5  0  0  0  0  0  0  0  0  0  0
   17.7378   14.9036   22.4166 O   0  0  0  0  0  0  0  0  0  0  0  0
   17.9198   17.2420   22.1955 C   0  0  0  0  0  0  0  0  0  0  0  0
   17.1763   18.0287   22.3714 H   0  0  0  0  0  0  0  0  0  0  0  0
   17.9321   17.0428   21.1172 H   0  0  0  0  0  0  0  0  0  0  0  0
   19.3176   17.7123   22.6680 C   0  0  0  0  0  0  0  0  0  0  0  0
   19.2919   17.8955   23.7512 H   0  0  0  0  0  0  0  0  0  0  0  0
   20.0473   16.9086   22.4975 H   0  0  0  0  0  0  0  0  0  0  0  0
   19.7715   18.9930   21.9345 C   0  0  0  0  0  0  0  0  0  0  0  0
   19.0325   19.7866   22.1054 H   0  0  0  0  0  0  0  0  0  0  0  0
   19.7984   18.8062   20.8523 H   0  0  0  0  0  0  0  0  0  0  0  0
   21.1656   19.4605   22.4125 C   0  0  0  0  0  0  0  0  0  0  0  0
   21.1293   19.6970   23.4847 H   0  0  0  0  0  0  0  0  0  0  0  0
   21.8782   18.6319   22.3006 H   0  0  0  0  0  0  0  0  0  0  0  0
   21.7057   20.6812   21.6318 C   0  0  0  0  0  0  0  0  0  0  0  0
   21.7496   20.4461   20.5594 H   0  0  0  0  0  0  0  0  0  0  0  0
   22.7398   20.8733   21.9497 H   0  0  0  0  0  0  0  0  0  0  0  0
   20.8729   21.9631   21.8490 C   0  0  0  0  0  0  0  0  0  0  0  0
   20.7899   22.2015   22.9173 H   0  0  0  0  0  0  0  0  0  0  0  0
   19.8604   21.8574   21.4397 H   0  0  0  0  0  0  0  0  0  0  0  0
   21.3459   22.8175   21.3478 H   0  0  0  0  0  0  0  0  0  0  0  0
  1  2  1  0  0  0  0
  1  3  2  0  0  0  0
  1  4  1  0  0  0  0
  4  5  1  0  0  0  0
  4  6  1  0  0  0  0
  4  7  1  0  0  0  0
  7  8  1  0  0  0  0
  7  9  1  0  0  0  0
  7 10  1  0  0  0  0
 10 11  1  0  0  0  0
 10 12  1  0  0  0  0
 10 13  1  0  0  0  0
 13 14  1  0  0  0  0
 13 15  1  0  0  0  0
 13 16  1  0  0  0  0
 16 17  1  0  0  0  0
 16 18  1  0  0  0  0
 16 19  1  0  0  0  0
 19 20  1  0  0  0  0
 19 21  1  0  0  0  0
 19 22  1  0  0  0  0
M  END
> <VConfSearch Rank>
564

> <Conf_Id>
38

> <Delta U+W>
-0.439

> <U+W>
-53.598

> <U>
6.751

> <W>
-60.350

> <W(PB)>
-62.659

> <W(SA)>
2.309

> <Valence>
7.602

> <Coulomb>
-1.744

> <VdW>
0.893

> <VdW6>
-7.110

> <VdW12>
8.004

> <Bond>
0.131

> <Angle>
2.489

> <Pdih>
4.981

> <Idih>
0.001

> <Tether>
0.000

$$$$
VeraChem MOL file


 22 21  0  0  0  0  0  0  0  0999 V2000     
   16.4969   18.0082   23.5766 C   0  0  0  0  0  0  0  0  0  0  0  0
   16.0279   16.8940   23.4532 O   0  5  0  0  0  0  0  0  0  0  0  0
   15.8297   18.9969   23.8085 O   0  0  0  0  0  0  0  0  0  0  0  0
   18.0026   18.1782   23.4087 C   0  0  0  0  0  0  0  0  0  0  0  0
   18.4895   17.2604   23.7592 H   0  0  0  0  0  0  0  0  0  0  0  0
   18.3214   18.9899   24.0720 H   0  0  0  0  0  0  0  0  0  0  0  0
   18.4125   18.4750   21.9426 C   0  0  0  0  0  0  0  0  0  0  0  0
   17.9927   17.6924   21.2956 H   0  0  0  0  0  0  0  0  0  0  0  0
   17.9584   19.4215   21.6182 H   0  0  0  0  0  0  0  0  0  0  0  0
   19.9437   18.5275   21.7244 C   0  0  0  0  0  0  0  0  0  0  0  0
   20.1304   18.5985   20.6453 H   0  0  0  0  0  0  0  0  0  0  0  0
   20.3954   17.5832   22.0574 H   0  0  0  0  0  0  0  0  0  0  0  0
   20.6272   19.7164   22.4437 C   0  0  0  0  0  0  0  0  0  0  0  0
   20.1742   20.6605   22.1119 H   0  0  0  0  0  0  0  0  0  0  0  0
   20.4439   19.6450   23.5232 H   0  0  0  0  0  0  0  0  0  0  0  0
   22.1569   19.7709   22.2217 C   0  0  0  0  0  0  0  0  0  0  0  0
   22.6126   18.8237   22.5418 H   0  0  0  0  0  0  0  0  0  0  0  0
   22.5782   20.5519   22.8697 H   0  0  0  0  0  0  0  0  0  0  0  0
   22.5553   20.0727   20.7606 C   0  0  0  0  0  0  0  0  0  0  0  0
   22.2621   19.2576   20.0876 H   0  0  0  0  0  0  0  0  0  0  0  0
   23.6429   20.1958   20.6775 H   0  0  0  0  0  0  0  0  0  0  0  0
   22.0827   20.9986   20.4076 H   0  0  0  0  0  0  0  0  0  0  0  0
  1  2  1  0  0  0  0
  1  3  2  0  0  0  0
  1  4  1  0  0  0  0
  4  5  1  0  0  0  0
  4  6  1  0  0  0  0
  4  7  1  0  0  0  0
  7  8  1  0  0  0  0
  7  9  1  0  0  0  0
  7 10  1  0  0  0  0
 10 11  1  0  0  0  0
 10 12  1  0  0  0  0
 10 13  1  0  0  0  0
 13 14  1  0  0  0  0
 13 15  1  0  0  0  0
 13 16  1  0  0  0  0
 16 17  1  0  0  0  0
 16 18  1  0  0  0  0
 16 19  1  0  0  0  0
 19 20  1  0  0  0  0
 19 21  1  0  0  0  0
 19 22  1  0  0  0  0
M  END
> <VConfSearch Rank>
565

> <Conf_Id>
60

> <Delta U+W>
0.386

> <U+W>
-52.773

> <U>
7.689

> <W>
-60.463

> <W(PB)>
-62.772

> <W(SA)>
2.309

> <Valence>
8.197

> <Coulomb>
-1.561

> <VdW>
1.053

> <VdW6>
-7.737

> <VdW12>
8.790

> <Bond>
0.181

> <Angle>
2.780

> <Pdih>
5.235

> <Idih>
0.001

> <Tether>
0.000

$$$$
VeraChem MOL file


 22 21  0  0  0  0  0  0  0  0999 V2000     
   21.2576   16.8708   25.0524 C   0  0  0  0  0  0  0  0  0  0  0  0
   20.9369   15.7066   24.9161 O   0  5  0  0  0  0  0  0  0  0  0  0
   21.6478   17.3426   26.1020 O   0  0  0  0  0  0  0  0  0  0  0  0
   21.1425   17.7957   23.8459 C   0  0  0  0  0  0  0  0  0  0  0  0
   21.3581   17.2023   22.9504 H   0  0  0  0  0  0  0  0  0  0  0  0
   21.9251   18.5594   23.9271 H   0  0  0  0  0  0  0  0  0  0  0  0
   19.7488   18.4674   23.7362 C   0  0  0  0  0  0  0  0  0  0  0  0
   18.9778   17.6954   23.6061 H   0  0  0  0  0  0  0  0  0  0  0  0
   19.5259   18.9704   24.6874 H   0  0  0  0  0  0  0  0  0  0  0  0
   19.6479   19.5055   22.5931 C   0  0  0  0  0  0  0  0  0  0  0  0
   20.4251   20.2711   22.7217 H   0  0  0  0  0  0  0  0  0  0  0  0
   18.6840   20.0215   22.6874 H   0  0  0  0  0  0  0  0  0  0  0  0
   19.7598   18.8790   21.1814 C   0  0  0  0  0  0  0  0  0  0  0  0
   20.7246   18.3654   21.0846 H   0  0  0  0  0  0  0  0  0  0  0  0
   18.9837   18.1121   21.0536 H   0  0  0  0  0  0  0  0  0  0  0  0
   19.6544   19.9164   20.0391 C   0  0  0  0  0  0  0  0  0  0  0  0
   19.8792   19.4151   19.0875 H   0  0  0  0  0  0  0  0  0  0  0  0
   20.4218   20.6918   20.1697 H   0  0  0  0  0  0  0  0  0  0  0  0
   18.2616   20.5750   19.9339 C   0  0  0  0  0  0  0  0  0  0  0  0
   17.4743   19.8161   19.8373 H   0  0  0  0  0  0  0  0  0  0  0  0
   18.2117   21.2274   19.0525 H   0  0  0  0  0  0  0  0  0  0  0  0
   18.0408   21.1909   20.8145 H   0  0  0  0  0  0  0  0  0  0  0  0
  1  2  1  0  0  0  0
  1  3  2  0  0  0  0
  1  4  1  0  0  0  0
  4  5  1  0  0  0  0
  4  6  1  0  0  0  0
  4  7  1  0  0  0  0
  7  8  1  0  0  0  0
  7  9  1  0  0  0  0
  7 10  1  0  0  0  0
 10 11  1  0  0  0  0
 10 12  1  0  0  0  0
 10 13  1  0  0  0  0
 13 14  1  0  0  0  0
 13 15  1  0  0  0  0
 13 16  1  0  0  0  0
 16 17  1  0  0  0  0
 16 18  1  0  0  0  0
 16 19  1  0  0  0  0
 19 20  1  0  0  0  0
 19 21  1  0  0  0  0
 19 22  1  0  0  0  0
M  END
> <VConfSearch Rank>
566

> <Conf_Id>
28

> <Delta U+W>
0.351

> <U+W>
-52.808

> <U>
7.689

> <W>
-60.498

> <W(PB)>
-62.768

> <W(SA)>
2.270

> <Valence>
8.197

> <Coulomb>
-1.561

> <VdW>
1.053

> <VdW6>
-7.737

> <VdW12>
8.791

> <Bond>
0.181

> <Angle>
2.780

> <Pdih>
5.235

> <Idih>
0.001

> <Tether>
0.000

$$$$
VeraChem MOL file


 22 21  0  0  0  0  0  0  0  0999 V2000     
   19.9096   15.7025   20.3186 C   0  0  0  0  0  0  0  0  0  0  0  0
   18.9536   15.5003   19.5964 O   0  5  0  0  0  0  0  0  0  0  0  0
   21.0577   15.4690   19.9966 O   0  0  0  0  0  0  0  0  0  0  0  0
   19.6561   16.3008   21.6978 C   0  0  0  0  0  0  0  0  0  0  0  0
   20.4192   15.9127   22.3832 H   0  0  0  0  0  0  0  0  0  0  0  0
   18.6849   15.9365   22.0537 H   0  0  0  0  0  0  0  0  0  0  0  0
   19.6789   17.8493   21.6952 C   0  0  0  0  0  0  0  0  0  0  0  0
   20.6519   18.1889   21.3167 H   0  0  0  0  0  0  0  0  0  0  0  0
   18.9158   18.2220   20.9979 H   0  0  0  0  0  0  0  0  0  0  0  0
   19.4240   18.4287   23.1060 C   0  0  0  0  0  0  0  0  0  0  0  0
   20.2168   18.0986   23.7912 H   0  0  0  0  0  0  0  0  0  0  0  0
   18.4838   18.0162   23.4967 H   0  0  0  0  0  0  0  0  0  0  0  0
   19.3287   19.9727   23.1301 C   0  0  0  0  0  0  0  0  0  0  0  0
   18.5333   20.3030   22.4480 H   0  0  0  0  0  0  0  0  0  0  0  0
   19.0238   20.2868   24.1377 H   0  0  0  0  0  0  0  0  0  0  0  0
   20.6543   20.6781   22.7649 C   0  0  0  0  0  0  0  0  0  0  0  0
   20.9378   20.4396   21.7314 H   0  0  0  0  0  0  0  0  0  0  0  0
   21.4614   20.3088   23.4125 H   0  0  0  0  0  0  0  0  0  0  0  0
   20.5394   22.2087   22.9123 C   0  0  0  0  0  0  0  0  0  0  0  0
   20.2941   22.4870   23.9456 H   0  0  0  0  0  0  0  0  0  0  0  0
   19.7568   22.6087   22.2543 H   0  0  0  0  0  0  0  0  0  0  0  0
   21.4870   22.6951   22.6465 H   0  0  0  0  0  0  0  0  0  0  0  0
  1  2  1  0  0  0  0
  1  3  2  0  0  0  0
  1  4  1  0  0  0  0
  4  5  1  0  0  0  0
  4  6  1  0  0  0  0
  4  7  1  0  0  0  0
  7  8  1  0  0  0  0
  7  9  1  0  0  0  0
  7 10  1  0  0  0  0
 10 11  1  0  0  0  0
 10 12  1  0  0  0  0
 10 13  1  0  0  0  0
 13 14  1  0  0  0  0
 13 15  1  0  0  0  0
 13 16  1  0  0  0  0
 16 17  1  0  0  0  0
 16 18  1  0  0  0  0
 16 19  1  0  0  0  0
 19 20  1  0  0  0  0
 19 21  1  0  0  0  0
 19 22  1  0  0  0  0
M  END
> <VConfSearch Rank>
567

> <Conf_Id>
50

> <Delta U+W>
-0.486

> <U+W>
-53.646

> <U>
7.026

> <W>
-60.672

> <W(PB)>
-62.964

> <W(SA)>
2.292

> <Valence>
7.637

> <Coulomb>
-1.488

> <VdW>
0.877

> <VdW6>
-7.165

> <VdW12>
8.043

> <Bond>
0.134

> <Angle>
2.513

> <Pdih>
4.990

> <Idih>
0.001

> <Tether>
0.000

$$$$
VeraChem MOL file


 22 21  0  0  0  0  0  0  0  0999 V2000     
   17.2358   17.3854   24.4995 C   0  0  0  0  0  0  0  0  0  0  0  0
   17.3562   17.5801   25.6929 O   0  5  0  0  0  0  0  0  0  0  0  0
   16.9648   16.3032   24.0182 O   0  0  0  0  0  0  0  0  0  0  0  0
   17.4570   18.5596   23.5526 C   0  0  0  0  0  0  0  0  0  0  0  0
   17.1275   19.4737   24.0609 H   0  0  0  0  0  0  0  0  0  0  0  0
   16.8069   18.4211   22.6803 H   0  0  0  0  0  0  0  0  0  0  0  0
   18.9321   18.6995   23.1021 C   0  0  0  0  0  0  0  0  0  0  0  0
   19.5708   18.8283   23.9869 H   0  0  0  0  0  0  0  0  0  0  0  0
   19.2440   17.7664   22.6149 H   0  0  0  0  0  0  0  0  0  0  0  0
   19.1267   19.8942   22.1398 C   0  0  0  0  0  0  0  0  0  0  0  0
   18.7380   20.8040   22.6174 H   0  0  0  0  0  0  0  0  0  0  0  0
   18.5283   19.7400   21.2315 H   0  0  0  0  0  0  0  0  0  0  0  0
   20.6042   20.1382   21.7512 C   0  0  0  0  0  0  0  0  0  0  0  0
   20.6627   21.0714   21.1745 H   0  0  0  0  0  0  0  0  0  0  0  0
   21.2023   20.2964   22.6591 H   0  0  0  0  0  0  0  0  0  0  0  0
   21.2191   18.9930   20.9153 C   0  0  0  0  0  0  0  0  0  0  0  0
   20.5919   18.7991   20.0343 H   0  0  0  0  0  0  0  0  0  0  0  0
   21.2424   18.0658   21.5029 H   0  0  0  0  0  0  0  0  0  0  0  0
   22.6522   19.3329   20.4588 C   0  0  0  0  0  0  0  0  0  0  0  0
   23.3085   19.5050   21.3219 H   0  0  0  0  0  0  0  0  0  0  0  0
   22.6623   20.2361   19.8346 H   0  0  0  0  0  0  0  0  0  0  0  0
   23.0760   18.5093   19.8696 H   0  0  0  0  0  0  0  0  0  0  0  0
  1  2  1  0  0  0  0
  1  3  2  0  0  0  0
  1  4  1  0  0  0  0
  4  5  1  0  0  0  0
  4  6  1  0  0  0  0
  4  7  1  0  0  0  0
  7  8  1  0  0  0  0
  7  9  1  0  0  0  0
  7 10  1  0  0  0  0
 10 11  1  0  0  0  0
 10 12  1  0  0  0  0
 10 13  1  0  0  0  0
 13 14  1  0  0  0  0
 13 15  1  0  0  0  0
 13 16  1  0  0  0  0
 16 17  1  0  0  0  0
 16 18  1  0  0  0  0
 16 19  1  0  0  0  0
 19 20  1  0  0  0  0
 19 21  1  0  0  0  0
 19 22  1  0  0  0  0
M  END
> <VConfSearch Rank>
568

> <Conf_Id>
51

> <Delta U+W>
-0.517

> <U+W>
-53.677

> <U>
7.026

> <W>
-60.703

> <W(PB)>
-63.007

> <W(SA)>
2.304

> <Valence>
7.638

> <Coulomb>
-1.488

> <VdW>
0.877

> <VdW6>
-7.165

> <VdW12>
8.042

> <Bond>
0.134

> <Angle>
2.513

> <Pdih>
4.990

> <Idih>
0.001

> <Tether>
0.000

$$$$
VeraChem MOL file


 22 21  0  0  0  0  0  0  0  0999 V2000     
   17.1312   17.4113   21.0080 C   0  0  0  0  0  0  0  0  0  0  0  0
   16.1209   17.6678   21.6328 O   0  5  0  0  0  0  0  0  0  0  0  0
   17.3019   17.7265   19.8468 O   0  0  0  0  0  0  0  0  0  0  0  0
   18.2371   16.6343   21.7168 C   0  0  0  0  0  0  0  0  0  0  0  0
   18.8963   16.1934   20.9592 H   0  0  0  0  0  0  0  0  0  0  0  0
   17.7631   15.8009   22.2487 H   0  0  0  0  0  0  0  0  0  0  0  0
   19.0636   17.4838   22.7169 C   0  0  0  0  0  0  0  0  0  0  0  0
   18.3868   17.9412   23.4521 H   0  0  0  0  0  0  0  0  0  0  0  0
   19.7369   16.8206   23.2766 H   0  0  0  0  0  0  0  0  0  0  0  0
   19.8958   18.5820   22.0176 C   0  0  0  0  0  0  0  0  0  0  0  0
   19.2274   19.2601   21.4691 H   0  0  0  0  0  0  0  0  0  0  0  0
   20.5611   18.1210   21.2746 H   0  0  0  0  0  0  0  0  0  0  0  0
   20.7342   19.3944   23.0278 C   0  0  0  0  0  0  0  0  0  0  0  0
   20.0683   19.8551   23.7704 H   0  0  0  0  0  0  0  0  0  0  0  0
   21.4056   18.7189   23.5755 H   0  0  0  0  0  0  0  0  0  0  0  0
   21.5650   20.4918   22.3302 C   0  0  0  0  0  0  0  0  0  0  0  0
   20.8965   21.1706   21.7827 H   0  0  0  0  0  0  0  0  0  0  0  0
   22.2336   20.0345   21.5878 H   0  0  0  0  0  0  0  0  0  0  0  0
   22.4004   21.3014   23.3422 C   0  0  0  0  0  0  0  0  0  0  0  0
   21.7536   21.7959   24.0789 H   0  0  0  0  0  0  0  0  0  0  0  0
   22.9843   22.0767   22.8294 H   0  0  0  0  0  0  0  0  0  0  0  0
   23.1009   20.6512   23.8826 H   0  0  0  0  0  0  0  0  0  0  0  0
  1  2  1  0  0  0  0
  1  3  2  0  0  0  0
  1  4  1  0  0  0  0
  4  5  1  0  0  0  0
  4  6  1  0  0  0  0
  4  7  1  0  0  0  0
  7  8  1  0  0  0  0
  7  9  1  0  0  0  0
  7 10  1  0  0  0  0
 10 11  1  0  0  0  0
 10 12  1  0  0  0  0
 10 13  1  0  0  0  0
 13 14  1  0  0  0  0
 13 15  1  0  0  0  0
 13 16  1  0  0  0  0
 16 17  1  0  0  0  0
 16 18  1  0  0  0  0
 16 19  1  0  0  0  0
 19 20  1  0  0  0  0
 19 21  1  0  0  0  0
 19 22  1  0  0  0  0
M  END
> <VConfSearch Rank>
569

> <Conf_Id>
43

> <Delta U+W>
-0.129

> <U+W>
-53.289

> <U>
7.937

> <W>
-61.225

> <W(PB)>
-63.523

> <W(SA)>
2.297

> <Valence>
7.358

> <Coulomb>
-0.022

> <VdW>
0.601

> <VdW6>
-7.363

> <VdW12>
7.964

> <Bond>
0.121

> <Angle>
2.425

> <Pdih>
4.811

> <Idih>
0.000

> <Tether>
0.000

$$$$
VeraChem MOL file


 22 21  0  0  0  0  0  0  0  0999 V2000     
   19.8250   17.9274   25.6185 C   0  0  0  0  0  0  0  0  0  0  0  0
   20.6591   17.0601   25.7886 O   0  5  0  0  0  0  0  0  0  0  0  0
   18.6344   17.7590   25.7946 O   0  0  0  0  0  0  0  0  0  0  0  0
   20.3029   19.3080   25.1774 C   0  0  0  0  0  0  0  0  0  0  0  0
   21.1655   19.5711   25.8009 H   0  0  0  0  0  0  0  0  0  0  0  0
   19.5158   20.0387   25.3997 H   0  0  0  0  0  0  0  0  0  0  0  0
   20.7017   19.3890   23.6809 C   0  0  0  0  0  0  0  0  0  0  0  0
   21.1594   20.3684   23.4866 H   0  0  0  0  0  0  0  0  0  0  0  0
   21.4700   18.6329   23.4675 H   0  0  0  0  0  0  0  0  0  0  0  0
   19.4969   19.1928   22.7334 C   0  0  0  0  0  0  0  0  0  0  0  0
   18.7264   19.9426   22.9595 H   0  0  0  0  0  0  0  0  0  0  0  0
   19.0438   18.2075   22.9101 H   0  0  0  0  0  0  0  0  0  0  0  0
   19.9109   19.3086   21.2506 C   0  0  0  0  0  0  0  0  0  0  0  0
   20.3617   20.2942   21.0708 H   0  0  0  0  0  0  0  0  0  0  0  0
   20.6813   18.5585   21.0254 H   0  0  0  0  0  0  0  0  0  0  0  0
   18.7084   19.1120   20.3038 C   0  0  0  0  0  0  0  0  0  0  0  0
   17.9362   19.8618   20.5252 H   0  0  0  0  0  0  0  0  0  0  0  0
   18.2559   18.1262   20.4796 H   0  0  0  0  0  0  0  0  0  0  0  0
   19.1257   19.2277   18.8240 C   0  0  0  0  0  0  0  0  0  0  0  0
   19.5532   20.2166   18.6127 H   0  0  0  0  0  0  0  0  0  0  0  0
   18.2591   19.0853   18.1654 H   0  0  0  0  0  0  0  0  0  0  0  0
   19.8753   18.4679   18.5668 H   0  0  0  0  0  0  0  0  0  0  0  0
  1  2  1  0  0  0  0
  1  3  2  0  0  0  0
  1  4  1  0  0  0  0
  4  5  1  0  0  0  0
  4  6  1  0  0  0  0
  4  7  1  0  0  0  0
  7  8  1  0  0  0  0
  7  9  1  0  0  0  0
  7 10  1  0  0  0  0
 10 11  1  0  0  0  0
 10 12  1  0  0  0  0
 10 13  1  0  0  0  0
 13 14  1  0  0  0  0
 13 15  1  0  0  0  0
 13 16  1  0  0  0  0
 16 17  1  0  0  0  0
 16 18  1  0  0  0  0
 16 19  1  0  0  0  0
 19 20  1  0  0  0  0
 19 21  1  0  0  0  0
 19 22  1  0  0  0  0
M  END
> <VConfSearch Rank>
570

> <Conf_Id>
44

> <Delta U+W>
-0.155

> <U+W>
-53.314

> <U>
7.937

> <W>
-61.252

> <W(PB)>
-63.556

> <W(SA)>
2.304

> <Valence>
7.358

> <Coulomb>
-0.021

> <VdW>
0.600

> <VdW6>
-7.363

> <VdW12>
7.964

> <Bond>
0.121

> <Angle>
2.425

> <Pdih>
4.811

> <Idih>
0.001

> <Tether>
0.000

$$$$
VeraChem MOL file


 22 21  0  0  0  0  0  0  0  0999 V2000     
   20.7853   17.1577   19.4884 C   0  0  0  0  0  0  0  0  0  0  0  0
   19.8833   17.0255   18.6847 O   0  5  0  0  0  0  0  0  0  0  0  0
   21.4646   16.2354   19.8941 O   0  0  0  0  0  0  0  0  0  0  0  0
   21.0924   18.5624   20.0002 C   0  0  0  0  0  0  0  0  0  0  0  0
   21.1077   19.2308   19.1313 H   0  0  0  0  0  0  0  0  0  0  0  0
   22.1043   18.5681   20.4230 H   0  0  0  0  0  0  0  0  0  0  0  0
   20.0737   19.0926   21.0428 C   0  0  0  0  0  0  0  0  0  0  0  0
   20.2879   20.1525   21.2297 H   0  0  0  0  0  0  0  0  0  0  0  0
   19.0609   19.0429   20.6196 H   0  0  0  0  0  0  0  0  0  0  0  0
   20.1248   18.3073   22.3754 C   0  0  0  0  0  0  0  0  0  0  0  0
   21.1264   18.3932   22.8182 H   0  0  0  0  0  0  0  0  0  0  0  0
   19.9681   17.2393   22.1706 H   0  0  0  0  0  0  0  0  0  0  0  0
   19.0626   18.7659   23.4026 C   0  0  0  0  0  0  0  0  0  0  0  0
   18.0610   18.6801   22.9593 H   0  0  0  0  0  0  0  0  0  0  0  0
   19.0842   18.0751   24.2565 H   0  0  0  0  0  0  0  0  0  0  0  0
   19.2829   20.2061   23.9182 C   0  0  0  0  0  0  0  0  0  0  0  0
   19.1853   20.9231   23.0926 H   0  0  0  0  0  0  0  0  0  0  0  0
   20.3038   20.3067   24.3119 H   0  0  0  0  0  0  0  0  0  0  0  0
   18.2703   20.5725   25.0218 C   0  0  0  0  0  0  0  0  0  0  0  0
   17.2404   20.5065   24.6469 H   0  0  0  0  0  0  0  0  0  0  0  0
   18.4374   21.5983   25.3749 H   0  0  0  0  0  0  0  0  0  0  0  0
   18.3657   19.8981   25.8829 H   0  0  0  0  0  0  0  0  0  0  0  0
  1  2  1  0  0  0  0
  1  3  2  0  0  0  0
  1  4  1  0  0  0  0
  4  5  1  0  0  0  0
  4  6  1  0  0  0  0
  4  7  1  0  0  0  0
  7  8  1  0  0  0  0
  7  9  1  0  0  0  0
  7 10  1  0  0  0  0
 10 11  1  0  0  0  0
 10 12  1  0  0  0  0
 10 13  1  0  0  0  0
 13 14  1  0  0  0  0
 13 15  1  0  0  0  0
 13 16  1  0  0  0  0
 16 17  1  0  0  0  0
 16 18  1  0  0  0  0
 16 19  1  0  0  0  0
 19 20  1  0  0  0  0
 19 21  1  0  0  0  0
 19 22  1  0  0  0  0
M  END
> <VConfSearch Rank>
571

> <Conf_Id>
53

> <Delta U+W>
0.723

> <U+W>
-52.436

> <U>
8.587

> <W>
-61.022

> <W(PB)>
-63.285

> <W(SA)>
2.263

> <Valence>
7.933

> <Coulomb>
-0.124

> <VdW>
0.778

> <VdW6>
-7.981

> <VdW12>
8.759

> <Bond>
0.160

> <Angle>
2.698

> <Pdih>
5.074

> <Idih>
0.001

> <Tether>
0.000

$$$$
VeraChem MOL file


 22 21  0  0  0  0  0  0  0  0999 V2000     
   16.9432   18.5861   20.5891 C   0  0  0  0  0  0  0  0  0  0  0  0
   16.0544   19.2268   21.1146 O   0  5  0  0  0  0  0  0  0  0  0  0
   16.8067   17.9759   19.5471 O   0  0  0  0  0  0  0  0  0  0  0  0
   18.3108   18.5645   21.2621 C   0  0  0  0  0  0  0  0  0  0  0  0
   18.7866   17.6026   21.0370 H   0  0  0  0  0  0  0  0  0  0  0  0
   18.1478   18.6075   22.3449 H   0  0  0  0  0  0  0  0  0  0  0  0
   19.2218   19.7329   20.8079 C   0  0  0  0  0  0  0  0  0  0  0  0
   19.2554   19.7464   19.7097 H   0  0  0  0  0  0  0  0  0  0  0  0
   18.7668   20.6853   21.1131 H   0  0  0  0  0  0  0  0  0  0  0  0
   20.6738   19.6559   21.3430 C   0  0  0  0  0  0  0  0  0  0  0  0
   21.2282   20.5035   20.9172 H   0  0  0  0  0  0  0  0  0  0  0  0
   21.1696   18.7532   20.9606 H   0  0  0  0  0  0  0  0  0  0  0  0
   20.7979   19.7247   22.8862 C   0  0  0  0  0  0  0  0  0  0  0  0
   21.7018   20.2963   23.1375 H   0  0  0  0  0  0  0  0  0  0  0  0
   19.9538   20.2873   23.3081 H   0  0  0  0  0  0  0  0  0  0  0  0
   20.9072   18.3349   23.5550 C   0  0  0  0  0  0  0  0  0  0  0  0
   21.7886   17.8077   23.1648 H   0  0  0  0  0  0  0  0  0  0  0  0
   20.0364   17.7167   23.3060 H   0  0  0  0  0  0  0  0  0  0  0  0
   21.0225   18.4528   25.0880 C   0  0  0  0  0  0  0  0  0  0  0  0
   21.9099   19.0335   25.3721 H   0  0  0  0  0  0  0  0  0  0  0  0
   21.1062   17.4592   25.5472 H   0  0  0  0  0  0  0  0  0  0  0  0
   20.1386   18.9481   25.5108 H   0  0  0  0  0  0  0  0  0  0  0  0
  1  2  1  0  0  0  0
  1  3  2  0  0  0  0
  1  4  1  0  0  0  0
  4  5  1  0  0  0  0
  4  6  1  0  0  0  0
  4  7  1  0  0  0  0
  7  8  1  0  0  0  0
  7  9  1  0  0  0  0
  7 10  1  0  0  0  0
 10 11  1  0  0  0  0
 10 12  1  0  0  0  0
 10 13  1  0  0  0  0
 13 14  1  0  0  0  0
 13 15  1  0  0  0  0
 13 16  1  0  0  0  0
 16 17  1  0  0  0  0
 16 18  1  0  0  0  0
 16 19  1  0  0  0  0
 19 20  1  0  0  0  0
 19 21  1  0  0  0  0
 19 22  1  0  0  0  0
M  END
> <VConfSearch Rank>
572

> <Conf_Id>
5

> <Delta U+W>
2.167

> <U+W>
-50.993

> <U>
10.045

> <W>
-61.037

> <W(PB)>
-63.303

> <W(SA)>
2.266

> <Valence>
10.100

> <Coulomb>
-0.883

> <VdW>
0.828

> <VdW6>
-8.177

> <VdW12>
9.005

> <Bond>
0.182

> <Angle>
2.988

> <Pdih>
6.930

> <Idih>
0.001

> <Tether>
0.000

$$$$
VeraChem MOL file


 22 21  0  0  0  0  0  0  0  0999 V2000     
   22.7791   19.4141   20.7758 C   0  0  0  0  0  0  0  0  0  0  0  0
   22.9916   18.4829   20.0246 O   0  5  0  0  0  0  0  0  0  0  0  0
   23.5627   20.3252   20.9559 O   0  0  0  0  0  0  0  0  0  0  0  0
   21.4674   19.4287   21.5524 C   0  0  0  0  0  0  0  0  0  0  0  0
   20.7012   18.9705   20.9169 H   0  0  0  0  0  0  0  0  0  0  0  0
   21.1797   20.4740   21.7162 H   0  0  0  0  0  0  0  0  0  0  0  0
   21.5627   18.6802   22.9058 C   0  0  0  0  0  0  0  0  0  0  0  0
   21.7726   17.6182   22.7172 H   0  0  0  0  0  0  0  0  0  0  0  0
   22.4258   19.0696   23.4633 H   0  0  0  0  0  0  0  0  0  0  0  0
   20.3025   18.8100   23.7978 C   0  0  0  0  0  0  0  0  0  0  0  0
   20.1418   19.8613   24.0733 H   0  0  0  0  0  0  0  0  0  0  0  0
   20.5085   18.2832   24.7395 H   0  0  0  0  0  0  0  0  0  0  0  0
   19.0117   18.2121   23.1829 C   0  0  0  0  0  0  0  0  0  0  0  0
   19.2655   17.3977   22.4905 H   0  0  0  0  0  0  0  0  0  0  0  0
   18.4218   17.7548   23.9890 H   0  0  0  0  0  0  0  0  0  0  0  0
   18.1253   19.2635   22.4762 C   0  0  0  0  0  0  0  0  0  0  0  0
   18.6850   19.7684   21.6798 H   0  0  0  0  0  0  0  0  0  0  0  0
   17.8325   20.0406   23.1957 H   0  0  0  0  0  0  0  0  0  0  0  0
   16.8578   18.6228   21.8759 C   0  0  0  0  0  0  0  0  0  0  0  0
   17.1192   17.8629   21.1279 H   0  0  0  0  0  0  0  0  0  0  0  0
   16.2360   19.3823   21.3844 H   0  0  0  0  0  0  0  0  0  0  0  0
   16.2529   18.1424   22.6560 H   0  0  0  0  0  0  0  0  0  0  0  0
  1  2  1  0  0  0  0
  1  3  2  0  0  0  0
  1  4  1  0  0  0  0
  4  5  1  0  0  0  0
  4  6  1  0  0  0  0
  4  7  1  0  0  0  0
  7  8  1  0  0  0  0
  7  9  1  0  0  0  0
  7 10  1  0  0  0  0
 10 11  1  0  0  0  0
 10 12  1  0  0  0  0
 10 13  1  0  0  0  0
 13 14  1  0  0  0  0
 13 15  1  0  0  0  0
 13 16  1  0  0  0  0
 16 17  1  0  0  0  0
 16 18  1  0  0  0  0
 16 19  1  0  0  0  0
 19 20  1  0  0  0  0
 19 21  1  0  0  0  0
 19 22  1  0  0  0  0
M  END
> <VConfSearch Rank>
573

> <Conf_Id>
6

> <Delta U+W>
2.118

> <U+W>
-51.042

> <U>
10.045

> <W>
-61.086

> <W(PB)>
-63.356

> <W(SA)>
2.270

> <Valence>
10.100

> <Coulomb>
-0.883

> <VdW>
0.828

> <VdW6>
-8.177

> <VdW12>
9.004

> <Bond>
0.182

> <Angle>
2.988

> <Pdih>
6.930

> <Idih>
0.001

> <Tether>
0.000

$$$$
VeraChem MOL file


 22 21  0  0  0  0  0  0  0  0999 V2000     
   17.6342   20.7742   22.3475 C   0  0  0  0  0  0  0  0  0  0  0  0
   17.7153   21.2256   21.2218 O   0  5  0  0  0  0  0  0  0  0  0  0
   17.8978   21.4139   23.3467 O   0  0  0  0  0  0  0  0  0  0  0  0
   17.1060   19.3516   22.5221 C   0  0  0  0  0  0  0  0  0  0  0  0
   16.0770   19.3565   22.1442 H   0  0  0  0  0  0  0  0  0  0  0  0
   17.0458   19.1224   23.5929 H   0  0  0  0  0  0  0  0  0  0  0  0
   17.9118   18.2485   21.7798 C   0  0  0  0  0  0  0  0  0  0  0  0
   17.2611   17.3707   21.6682 H   0  0  0  0  0  0  0  0  0  0  0  0
   18.1488   18.5803   20.7593 H   0  0  0  0  0  0  0  0  0  0  0  0
   19.2026   17.7897   22.5024 C   0  0  0  0  0  0  0  0  0  0  0  0
   19.5976   16.9122   21.9722 H   0  0  0  0  0  0  0  0  0  0  0  0
   18.9572   17.4517   23.5184 H   0  0  0  0  0  0  0  0  0  0  0  0
   20.3067   18.8692   22.5665 C   0  0  0  0  0  0  0  0  0  0  0  0
   20.4796   19.2804   21.5625 H   0  0  0  0  0  0  0  0  0  0  0  0
   19.9786   19.7011   23.2025 H   0  0  0  0  0  0  0  0  0  0  0  0
   21.6277   18.3015   23.1274 C   0  0  0  0  0  0  0  0  0  0  0  0
   21.9738   17.4722   22.4950 H   0  0  0  0  0  0  0  0  0  0  0  0
   21.4560   17.8882   24.1310 H   0  0  0  0  0  0  0  0  0  0  0  0
   22.7250   19.3823   23.1992 C   0  0  0  0  0  0  0  0  0  0  0  0
   22.9389   19.7912   22.2030 H   0  0  0  0  0  0  0  0  0  0  0  0
   23.6564   18.9624   23.6008 H   0  0  0  0  0  0  0  0  0  0  0  0
   22.4176   20.2108   23.8507 H   0  0  0  0  0  0  0  0  0  0  0  0
  1  2  1  0  0  0  0
  1  3  2  0  0  0  0
  1  4  1  0  0  0  0
  4  5  1  0  0  0  0
  4  6  1  0  0  0  0
  4  7  1  0  0  0  0
  7  8  1  0  0  0  0
  7  9  1  0  0  0  0
  7 10  1  0  0  0  0
 10 11  1  0  0  0  0
 10 12  1  0  0  0  0
 10 13  1  0  0  0  0
 13 14  1  0  0  0  0
 13 15  1  0  0  0  0
 13 16  1  0  0  0  0
 16 17  1  0  0  0  0
 16 18  1  0  0  0  0
 16 19  1  0  0  0  0
 19 20  1  0  0  0  0
 19 21  1  0  0  0  0
 19 22  1  0  0  0  0
M  END
> <VConfSearch Rank>
574

> <Conf_Id>
8

> <Delta U+W>
1.886

> <U+W>
-51.274

> <U>
11.237

> <W>
-62.510

> <W(PB)>
-64.777

> <W(SA)>
2.267

> <Valence>
9.029

> <Coulomb>
1.667

> <VdW>
0.540

> <VdW6>
-8.825

> <VdW12>
9.365

> <Bond>
0.186

> <Angle>
3.195

> <Pdih>
5.642

> <Idih>
0.007

> <Tether>
0.000

$$$$
VeraChem MOL file


 22 21  0  0  0  0  0  0  0  0999 V2000     
   16.9240   19.3376   21.1130 C   0  0  0  0  0  0  0  0  0  0  0  0
   16.7957   20.3896   21.7075 O   0  5  0  0  0  0  0  0  0  0  0  0
   16.0503   18.4956   21.0407 O   0  0  0  0  0  0  0  0  0  0  0  0
   18.2421   19.0697   20.3919 C   0  0  0  0  0  0  0  0  0  0  0  0
   18.7980   20.0109   20.3145 H   0  0  0  0  0  0  0  0  0  0  0  0
   17.9968   18.7708   19.3661 H   0  0  0  0  0  0  0  0  0  0  0  0
   19.1153   17.9675   21.0520 C   0  0  0  0  0  0  0  0  0  0  0  0
   18.5552   17.0222   21.0394 H   0  0  0  0  0  0  0  0  0  0  0  0
   20.0111   17.8018   20.4386 H   0  0  0  0  0  0  0  0  0  0  0  0
   19.5442   18.2709   22.5090 C   0  0  0  0  0  0  0  0  0  0  0  0
   20.0691   17.3892   22.8976 H   0  0  0  0  0  0  0  0  0  0  0  0
   18.6533   18.4032   23.1380 H   0  0  0  0  0  0  0  0  0  0  0  0
   20.4588   19.5138   22.6361 C   0  0  0  0  0  0  0  0  0  0  0  0
   21.3413   19.3939   21.9932 H   0  0  0  0  0  0  0  0  0  0  0  0
   19.9213   20.3980   22.2698 H   0  0  0  0  0  0  0  0  0  0  0  0
   20.9100   19.7984   24.0877 C   0  0  0  0  0  0  0  0  0  0  0  0
   20.0289   19.9033   24.7359 H   0  0  0  0  0  0  0  0  0  0  0  0
   21.4285   20.7668   24.1107 H   0  0  0  0  0  0  0  0  0  0  0  0
   21.8535   18.7187   24.6611 C   0  0  0  0  0  0  0  0  0  0  0  0
   21.3410   17.7552   24.7729 H   0  0  0  0  0  0  0  0  0  0  0  0
   22.2189   19.0163   25.6525 H   0  0  0  0  0  0  0  0  0  0  0  0
   22.7251   18.5724   24.0099 H   0  0  0  0  0  0  0  0  0  0  0  0
  1  2  1  0  0  0  0
  1  3  2  0  0  0  0
  1  4  1  0  0  0  0
  4  5  1  0  0  0  0
  4  6  1  0  0  0  0
  4  7  1  0  0  0  0
  7  8  1  0  0  0  0
  7  9  1  0  0  0  0
  7 10  1  0  0  0  0
 10 11  1  0  0  0  0
 10 12  1  0  0  0  0
 10 13  1  0  0  0  0
 13 14  1  0  0  0  0
 13 15  1  0  0  0  0
 13 16  1  0  0  0  0
 16 17  1  0  0  0  0
 16 18  1  0  0  0  0
 16 19  1  0  0  0  0
 19 20  1  0  0  0  0
 19 21  1  0  0  0  0
 19 22  1  0  0  0  0
M  END
> <VConfSearch Rank>
575

> <Conf_Id>
93

> <Delta U+W>
1.836

> <U+W>
-51.323

> <U>
10.427

> <W>
-61.751

> <W(PB)>
-63.980

> <W(SA)>
2.230

> <Valence>
8.446

> <Coulomb>
1.306

> <VdW>
0.676

> <VdW6>
-8.928

> <VdW12>
9.604

> <Bond>
0.209

> <Angle>
3.066

> <Pdih>
5.170

> <Idih>
0.001

> <Tether>
0.000

$$$$
VeraChem MOL file


 22 21  0  0  0  0  0  0  0  0999 V2000     
   18.8856   21.2287   20.3476 C   0  0  0  0  0  0  0  0  0  0  0  0
   19.6381   21.7735   19.5638 O   0  5  0  0  0  0  0  0  0  0  0  0
   18.2620   21.8236   21.2043 O   0  0  0  0  0  0  0  0  0  0  0  0
   18.6922   19.7196   20.2280 C   0  0  0  0  0  0  0  0  0  0  0  0
   18.4719   19.5023   19.1763 H   0  0  0  0  0  0  0  0  0  0  0  0
   17.7997   19.4336   20.7958 H   0  0  0  0  0  0  0  0  0  0  0  0
   19.9218   18.8835   20.6774 C   0  0  0  0  0  0  0  0  0  0  0  0
   19.7164   17.8186   20.5043 H   0  0  0  0  0  0  0  0  0  0  0  0
   20.7746   19.1404   20.0339 H   0  0  0  0  0  0  0  0  0  0  0  0
   20.3359   19.0889   22.1556 C   0  0  0  0  0  0  0  0  0  0  0  0
   20.5780   20.1463   22.3296 H   0  0  0  0  0  0  0  0  0  0  0  0
   21.2624   18.5269   22.3286 H   0  0  0  0  0  0  0  0  0  0  0  0
   19.2573   18.6300   23.1673 C   0  0  0  0  0  0  0  0  0  0  0  0
   18.3403   19.2118   23.0079 H   0  0  0  0  0  0  0  0  0  0  0  0
   18.9982   17.5785   22.9838 H   0  0  0  0  0  0  0  0  0  0  0  0
   19.6840   18.8085   24.6431 C   0  0  0  0  0  0  0  0  0  0  0  0
   18.8184   18.5990   25.2865 H   0  0  0  0  0  0  0  0  0  0  0  0
   19.9587   19.8567   24.8253 H   0  0  0  0  0  0  0  0  0  0  0  0
   20.8475   17.8840   25.0629 C   0  0  0  0  0  0  0  0  0  0  0  0
   21.7735   18.1369   24.5320 H   0  0  0  0  0  0  0  0  0  0  0  0
   20.6078   16.8326   24.8571 H   0  0  0  0  0  0  0  0  0  0  0  0
   21.0452   17.9809   26.1382 H   0  0  0  0  0  0  0  0  0  0  0  0
  1  2  1  0  0  0  0
  1  3  2  0  0  0  0
  1  4  1  0  0  0  0
  4  5  1  0  0  0  0
  4  6  1  0  0  0  0
  4  7  1  0  0  0  0
  7  8  1  0  0  0  0
  7  9  1  0  0  0  0
  7 10  1  0  0  0  0
 10 11  1  0  0  0  0
 10 12  1  0  0  0  0
 10 13  1  0  0  0  0
 13 14  1  0  0  0  0
 13 15  1  0  0  0  0
 13 16  1  0  0  0  0
 16 17  1  0  0  0  0
 16 18  1  0  0  0  0
 16 19  1  0  0  0  0
 19 20  1  0  0  0  0
 19 21  1  0  0  0  0
 19 22  1  0  0  0  0
M  END
> <VConfSearch Rank>
576

> <Conf_Id>
70

> <Delta U+W>
1.803

> <U+W>
-51.356

> <U>
10.428

> <W>
-61.784

> <W(PB)>
-64.014

> <W(SA)>
2.230

> <Valence>
8.445

> <Coulomb>
1.306

> <VdW>
0.676

> <VdW6>
-8.929

> <VdW12>
9.605

> <Bond>
0.209

> <Angle>
3.066

> <Pdih>
5.170

> <Idih>
0.001

> <Tether>
0.000

$$$$
VeraChem MOL file


 22 21  0  0  0  0  0  0  0  0999 V2000     
   19.6162   18.6753   25.6960 C   0  0  0  0  0  0  0  0  0  0  0  0
   19.3311   19.7865   26.0970 O   0  5  0  0  0  0  0  0  0  0  0  0
   20.6133   18.0716   26.0401 O   0  0  0  0  0  0  0  0  0  0  0  0
   18.6576   17.9939   24.7235 C   0  0  0  0  0  0  0  0  0  0  0  0
   17.6410   18.1415   25.1068 H   0  0  0  0  0  0  0  0  0  0  0  0
   18.8496   16.9142   24.7412 H   0  0  0  0  0  0  0  0  0  0  0  0
   18.7467   18.5309   23.2714 C   0  0  0  0  0  0  0  0  0  0  0  0
   17.9402   18.0831   22.6753 H   0  0  0  0  0  0  0  0  0  0  0  0
   18.5704   19.6146   23.2818 H   0  0  0  0  0  0  0  0  0  0  0  0
   20.1083   18.2166   22.6067 C   0  0  0  0  0  0  0  0  0  0  0  0
   20.3036   17.1385   22.6859 H   0  0  0  0  0  0  0  0  0  0  0  0
   20.9166   18.7183   23.1564 H   0  0  0  0  0  0  0  0  0  0  0  0
   20.1728   18.6192   21.1143 C   0  0  0  0  0  0  0  0  0  0  0  0
   21.1192   18.2510   20.6953 H   0  0  0  0  0  0  0  0  0  0  0  0
   19.3702   18.1127   20.5610 H   0  0  0  0  0  0  0  0  0  0  0  0
   20.0823   20.1447   20.8839 C   0  0  0  0  0  0  0  0  0  0  0  0
   20.8518   20.6555   21.4790 H   0  0  0  0  0  0  0  0  0  0  0  0
   19.1097   20.5220   21.2260 H   0  0  0  0  0  0  0  0  0  0  0  0
   20.2639   20.5034   19.3953 C   0  0  0  0  0  0  0  0  0  0  0  0
   21.2449   20.1743   19.0282 H   0  0  0  0  0  0  0  0  0  0  0  0
   20.1940   21.5890   19.2478 H   0  0  0  0  0  0  0  0  0  0  0  0
   19.4898   20.0271   18.7796 H   0  0  0  0  0  0  0  0  0  0  0  0
  1  2  1  0  0  0  0
  1  3  2  0  0  0  0
  1  4  1  0  0  0  0
  4  5  1  0  0  0  0
  4  6  1  0  0  0  0
  4  7  1  0  0  0  0
  7  8  1  0  0  0  0
  7  9  1  0  0  0  0
  7 10  1  0  0  0  0
 10 11  1  0  0  0  0
 10 12  1  0  0  0  0
 10 13  1  0  0  0  0
 13 14  1  0  0  0  0
 13 15  1  0  0  0  0
 13 16  1  0  0  0  0
 16 17  1  0  0  0  0
 16 18  1  0  0  0  0
 16 19  1  0  0  0  0
 19 20  1  0  0  0  0
 19 21  1  0  0  0  0
 19 22  1  0  0  0  0
M  END
> <VConfSearch Rank>
577

> <Conf_Id>
85

> <Delta U+W>
0.707

> <U+W>
-52.452

> <U>
8.925

> <W>
-61.378

> <W(PB)>
-63.661

> <W(SA)>
2.283

> <Valence>
7.881

> <Coulomb>
0.349

> <VdW>
0.695

> <VdW6>
-8.049

> <VdW12>
8.743

> <Bond>
0.156

> <Angle>
2.660

> <Pdih>
5.064

> <Idih>
0.001

> <Tether>
0.000

$$$$
VeraChem MOL file


 22 21  0  0  0  0  0  0  0  0999 V2000     
   20.2702   15.9718   23.9687 C   0  0  0  0  0  0  0  0  0  0  0  0
   20.8564   16.0977   25.0258 O   0  5  0  0  0  0  0  0  0  0  0  0
   19.2524   15.3206   23.8380 O   0  0  0  0  0  0  0  0  0  0  0  0
   20.8552   16.6482   22.7319 C   0  0  0  0  0  0  0  0  0  0  0  0
   20.8436   15.9112   21.9203 H   0  0  0  0  0  0  0  0  0  0  0  0
   21.9072   16.8883   22.9276 H   0  0  0  0  0  0  0  0  0  0  0  0
   20.0897   17.9211   22.2850 C   0  0  0  0  0  0  0  0  0  0  0  0
   20.4850   18.2379   21.3117 H   0  0  0  0  0  0  0  0  0  0  0  0
   19.0287   17.6763   22.1381 H   0  0  0  0  0  0  0  0  0  0  0  0
   20.2269   19.0835   23.2954 C   0  0  0  0  0  0  0  0  0  0  0  0
   21.2824   19.3784   23.3712 H   0  0  0  0  0  0  0  0  0  0  0  0
   19.9351   18.7301   24.2938 H   0  0  0  0  0  0  0  0  0  0  0  0
   19.3676   20.3270   22.9551 C   0  0  0  0  0  0  0  0  0  0  0  0
   18.3013   20.0629   22.9682 H   0  0  0  0  0  0  0  0  0  0  0  0
   19.5044   21.0544   23.7669 H   0  0  0  0  0  0  0  0  0  0  0  0
   19.7320   21.0222   21.6194 C   0  0  0  0  0  0  0  0  0  0  0  0
   20.7896   20.8504   21.3763 H   0  0  0  0  0  0  0  0  0  0  0  0
   19.6207   22.1078   21.7469 H   0  0  0  0  0  0  0  0  0  0  0  0
   18.8332   20.5859   20.4409 C   0  0  0  0  0  0  0  0  0  0  0  0
   18.9071   19.5098   20.2473 H   0  0  0  0  0  0  0  0  0  0  0  0
   19.1225   21.1124   19.5222 H   0  0  0  0  0  0  0  0  0  0  0  0
   17.7806   20.8214   20.6452 H   0  0  0  0  0  0  0  0  0  0  0  0
  1  2  1  0  0  0  0
  1  3  2  0  0  0  0
  1  4  1  0  0  0  0
  4  5  1  0  0  0  0
  4  6  1  0  0  0  0
  4  7  1  0  0  0  0
  7  8  1  0  0  0  0
  7  9  1  0  0  0  0
  7 10  1  0  0  0  0
 10 11  1  0  0  0  0
 10 12  1  0  0  0  0
 10 13  1  0  0  0  0
 13 14  1  0  0  0  0
 13 15  1  0  0  0  0
 13 16  1  0  0  0  0
 16 17  1  0  0  0  0
 16 18  1  0  0  0  0
 16 19  1  0  0  0  0
 19 20  1  0  0  0  0
 19 21  1  0  0  0  0
 19 22  1  0  0  0  0
M  END
> <VConfSearch Rank>
578

> <Conf_Id>
82

> <Delta U+W>
3.438

> <U+W>
-49.721

> <U>
11.773

> <W>
-61.495

> <W(PB)>
-63.749

> <W(SA)>
2.254

> <Valence>
10.419

> <Coulomb>
0.565

> <VdW>
0.789

> <VdW6>
-8.847

> <VdW12>
9.636

> <Bond>
0.200

> <Angle>
3.187

> <Pdih>
7.032

> <Idih>
0.001

> <Tether>
0.000

$$$$
VeraChem MOL file


 22 21  0  0  0  0  0  0  0  0999 V2000     
   18.1063   17.5622   24.8354 C   0  0  0  0  0  0  0  0  0  0  0  0
   16.9313   17.7149   24.5654 O   0  5  0  0  0  0  0  0  0  0  0  0
   18.5723   16.5156   25.2408 O   0  0  0  0  0  0  0  0  0  0  0  0
   19.0418   18.7579   24.6783 C   0  0  0  0  0  0  0  0  0  0  0  0
   19.9487   18.5738   25.2669 H   0  0  0  0  0  0  0  0  0  0  0  0
   18.5425   19.6245   25.1275 H   0  0  0  0  0  0  0  0  0  0  0  0
   19.4143   19.0812   23.2078 C   0  0  0  0  0  0  0  0  0  0  0  0
   18.4960   19.2167   22.6198 H   0  0  0  0  0  0  0  0  0  0  0  0
   19.9524   20.0372   23.1899 H   0  0  0  0  0  0  0  0  0  0  0  0
   20.2956   17.9865   22.5627 C   0  0  0  0  0  0  0  0  0  0  0  0
   19.8040   17.0112   22.6813 H   0  0  0  0  0  0  0  0  0  0  0  0
   21.2478   17.9176   23.1060 H   0  0  0  0  0  0  0  0  0  0  0  0
   20.5773   18.2031   21.0547 C   0  0  0  0  0  0  0  0  0  0  0  0
   21.1583   17.3407   20.7006 H   0  0  0  0  0  0  0  0  0  0  0  0
   19.6358   18.1806   20.4888 H   0  0  0  0  0  0  0  0  0  0  0  0
   21.3733   19.4896   20.7211 C   0  0  0  0  0  0  0  0  0  0  0  0
   22.0561   19.2738   19.8878 H   0  0  0  0  0  0  0  0  0  0  0  0
   22.0092   19.7754   21.5704 H   0  0  0  0  0  0  0  0  0  0  0  0
   20.4715   20.6729   20.3044 C   0  0  0  0  0  0  0  0  0  0  0  0
   19.8856   20.4208   19.4110 H   0  0  0  0  0  0  0  0  0  0  0  0
   21.0805   21.5550   20.0683 H   0  0  0  0  0  0  0  0  0  0  0  0
   19.7713   20.9527   21.0996 H   0  0  0  0  0  0  0  0  0  0  0  0
  1  2  1  0  0  0  0
  1  3  2  0  0  0  0
  1  4  1  0  0  0  0
  4  5  1  0  0  0  0
  4  6  1  0  0  0  0
  4  7  1  0  0  0  0
  7  8  1  0  0  0  0
  7  9  1  0  0  0  0
  7 10  1  0  0  0  0
 10 11  1  0  0  0  0
 10 12  1  0  0  0  0
 10 13  1  0  0  0  0
 13 14  1  0  0  0  0
 13 15  1  0  0  0  0
 13 16  1  0  0  0  0
 16 17  1  0  0  0  0
 16 18  1  0  0  0  0
 16 19  1  0  0  0  0
 19 20  1  0  0  0  0
 19 21  1  0  0  0  0
 19 22  1  0  0  0  0
M  END
> <VConfSearch Rank>
579

> <Conf_Id>
94

> <Delta U+W>
3.471

> <U+W>
-49.688

> <U>
11.773

> <W>
-61.461

> <W(PB)>
-63.710

> <W(SA)>
2.248

> <Valence>
10.419

> <Coulomb>
0.566

> <VdW>
0.789

> <VdW6>
-8.847

> <VdW12>
9.636

> <Bond>
0.200

> <Angle>
3.187

> <Pdih>
7.032

> <Idih>
0.001

> <Tether>
0.000

$$$$
VeraChem MOL file


 22 21  0  0  0  0  0  0  0  0999 V2000     
   17.7824   21.5806   23.1803 C   0  0  0  0  0  0  0  0  0  0  0  0
   17.9784   22.6443   23.7344 O   0  5  0  0  0  0  0  0  0  0  0  0
   16.7285   20.9782   23.2344 O   0  0  0  0  0  0  0  0  0  0  0  0
   18.9282   20.9589   22.3901 C   0  0  0  0  0  0  0  0  0  0  0  0
   19.5280   21.7712   21.9626 H   0  0  0  0  0  0  0  0  0  0  0  0
   18.4925   20.4007   21.5537 H   0  0  0  0  0  0  0  0  0  0  0  0
   19.8213   20.0329   23.2557 C   0  0  0  0  0  0  0  0  0  0  0  0
   20.1752   20.5989   24.1283 H   0  0  0  0  0  0  0  0  0  0  0  0
   19.2170   19.2071   23.6542 H   0  0  0  0  0  0  0  0  0  0  0  0
   21.0514   19.4748   22.4969 C   0  0  0  0  0  0  0  0  0  0  0  0
   21.6554   18.8761   23.1914 H   0  0  0  0  0  0  0  0  0  0  0  0
   21.6918   20.3143   22.1942 H   0  0  0  0  0  0  0  0  0  0  0  0
   20.7230   18.6252   21.2409 C   0  0  0  0  0  0  0  0  0  0  0  0
   20.2631   19.2669   20.4780 H   0  0  0  0  0  0  0  0  0  0  0  0
   21.6655   18.2715   20.8016 H   0  0  0  0  0  0  0  0  0  0  0  0
   19.8021   17.4059   21.4925 C   0  0  0  0  0  0  0  0  0  0  0  0
   19.6198   16.9010   20.5339 H   0  0  0  0  0  0  0  0  0  0  0  0
   18.8197   17.7415   21.8507 H   0  0  0  0  0  0  0  0  0  0  0  0
   20.3988   16.3857   22.4859 C   0  0  0  0  0  0  0  0  0  0  0  0
   21.3897   16.0487   22.1550 H   0  0  0  0  0  0  0  0  0  0  0  0
   19.7505   15.5036   22.5667 H   0  0  0  0  0  0  0  0  0  0  0  0
   20.4990   16.8183   23.4892 H   0  0  0  0  0  0  0  0  0  0  0  0
  1  2  1  0  0  0  0
  1  3  2  0  0  0  0
  1  4  1  0  0  0  0
  4  5  1  0  0  0  0
  4  6  1  0  0  0  0
  4  7  1  0  0  0  0
  7  8  1  0  0  0  0
  7  9  1  0  0  0  0
  7 10  1  0  0  0  0
 10 11  1  0  0  0  0
 10 12  1  0  0  0  0
 10 13  1  0  0  0  0
 13 14  1  0  0  0  0
 13 15  1  0  0  0  0
 13 16  1  0  0  0  0
 16 17  1  0  0  0  0
 16 18  1  0  0  0  0
 16 19  1  0  0  0  0
 19 20  1  0  0  0  0
 19 21  1  0  0  0  0
 19 22  1  0  0  0  0
M  END
> <VConfSearch Rank>
580

> <Conf_Id>
56

> <Delta U+W>
0.853

> <U+W>
-52.307

> <U>
8.874

> <W>
-61.181

> <W(PB)>
-63.413

> <W(SA)>
2.232

> <Valence>
8.479

> <Coulomb>
-0.357

> <VdW>
0.753

> <VdW6>
-9.081

> <VdW12>
9.833

> <Bond>
0.221

> <Angle>
3.208

> <Pdih>
5.050

> <Idih>
0.000

> <Tether>
0.000

$$$$
VeraChem MOL file


 22 21  0  0  0  0  0  0  0  0999 V2000     
   17.7114   16.6401   19.5817 C   0  0  0  0  0  0  0  0  0  0  0  0
   16.8207   16.4451   20.3860 O   0  5  0  0  0  0  0  0  0  0  0  0
   17.7055   16.1749   18.4595 O   0  0  0  0  0  0  0  0  0  0  0  0
   18.9094   17.5075   19.9714 C   0  0  0  0  0  0  0  0  0  0  0  0
   18.9671   18.3295   19.2482 H   0  0  0  0  0  0  0  0  0  0  0  0
   19.8113   16.8986   19.8378 H   0  0  0  0  0  0  0  0  0  0  0  0
   18.8719   18.0797   21.4136 C   0  0  0  0  0  0  0  0  0  0  0  0
   17.9630   18.6834   21.5426 H   0  0  0  0  0  0  0  0  0  0  0  0
   18.8081   17.2513   22.1328 H   0  0  0  0  0  0  0  0  0  0  0  0
   20.1159   18.9409   21.7222 C   0  0  0  0  0  0  0  0  0  0  0  0
   20.1776   19.7683   21.0019 H   0  0  0  0  0  0  0  0  0  0  0  0
   21.0233   18.3353   21.5923 H   0  0  0  0  0  0  0  0  0  0  0  0
   20.0767   19.5089   23.1572 C   0  0  0  0  0  0  0  0  0  0  0  0
   19.1693   20.1147   23.2875 H   0  0  0  0  0  0  0  0  0  0  0  0
   20.0150   18.6819   23.8778 H   0  0  0  0  0  0  0  0  0  0  0  0
   21.3194   20.3698   23.4662 C   0  0  0  0  0  0  0  0  0  0  0  0
   21.3833   21.1995   22.7486 H   0  0  0  0  0  0  0  0  0  0  0  0
   22.2290   19.7666   23.3388 H   0  0  0  0  0  0  0  0  0  0  0  0
   21.2764   20.9350   24.9001 C   0  0  0  0  0  0  0  0  0  0  0  0
   20.3919   21.5688   25.0461 H   0  0  0  0  0  0  0  0  0  0  0  0
   22.1670   21.5442   25.1027 H   0  0  0  0  0  0  0  0  0  0  0  0
   21.2440   20.1252   25.6407 H   0  0  0  0  0  0  0  0  0  0  0  0
  1  2  1  0  0  0  0
  1  3  2  0  0  0  0
  1  4  1  0  0  0  0
  4  5  1  0  0  0  0
  4  6  1  0  0  0  0
  4  7  1  0  0  0  0
  7  8  1  0  0  0  0
  7  9  1  0  0  0  0
  7 10  1  0  0  0  0
 10 11  1  0  0  0  0
 10 12  1  0  0  0  0
 10 13  1  0  0  0  0
 13 14  1  0  0  0  0
 13 15  1  0  0  0  0
 13 16  1  0  0  0  0
 16 17  1  0  0  0  0
 16 18  1  0  0  0  0
 16 19  1  0  0  0  0
 19 20  1  0  0  0  0
 19 21  1  0  0  0  0
 19 22  1  0  0  0  0
M  END
> <VConfSearch Rank>
581

> <Conf_Id>
0

> <Delta U+W>
0.000

> <U+W>
-53.159

> <U>
6.763

> <W>
-59.922

> <W(PB)>
-62.256

> <W(SA)>
2.334

> <Valence>
7.600

> <Coulomb>
-2.139

> <VdW>
1.302

> <VdW6>
-6.786

> <VdW12>
8.088

> <Bond>
0.134

> <Angle>
2.720

> <Pdih>
4.746

> <Idih>
0.000

> <Tether>
0.000

$$$$
VeraChem MOL file


 22 21  0  0  0  0  0  0  0  0999 V2000     
   15.8499   19.0967   21.4055 C   0  0  0  0  0  0  0  0  0  0  0  0
   15.1504   18.7495   22.3364 O   0  5  0  0  0  0  0  0  0  0  0  0
   15.5599   18.9117   20.2401 O   0  0  0  0  0  0  0  0  0  0  0  0
   17.1753   19.7824   21.7175 C   0  0  0  0  0  0  0  0  0  0  0  0
   17.0501   20.3621   22.6399 H   0  0  0  0  0  0  0  0  0  0  0  0
   17.3875   20.4960   20.9123 H   0  0  0  0  0  0  0  0  0  0  0  0
   18.3486   18.7832   21.8692 C   0  0  0  0  0  0  0  0  0  0  0  0
   18.1149   18.0679   22.6700 H   0  0  0  0  0  0  0  0  0  0  0  0
   18.4522   18.2018   20.9424 H   0  0  0  0  0  0  0  0  0  0  0  0
   19.6783   19.5016   22.1845 C   0  0  0  0  0  0  0  0  0  0  0  0
   19.5709   20.0828   23.1108 H   0  0  0  0  0  0  0  0  0  0  0  0
   19.9084   20.2168   21.3828 H   0  0  0  0  0  0  0  0  0  0  0  0
   20.8461   18.5031   22.3351 C   0  0  0  0  0  0  0  0  0  0  0  0
   20.6164   17.7878   23.1368 H   0  0  0  0  0  0  0  0  0  0  0  0
   20.9538   17.9218   21.4091 H   0  0  0  0  0  0  0  0  0  0  0  0
   22.1754   19.2204   22.6504 C   0  0  0  0  0  0  0  0  0  0  0  0
   22.0722   19.8015   23.5772 H   0  0  0  0  0  0  0  0  0  0  0  0
   22.4096   19.9355   21.8495 H   0  0  0  0  0  0  0  0  0  0  0  0
   23.3390   18.2199   22.8000 C   0  0  0  0  0  0  0  0  0  0  0  0
   23.4853   17.6464   21.8753 H   0  0  0  0  0  0  0  0  0  0  0  0
   23.1453   17.5113   23.6159 H   0  0  0  0  0  0  0  0  0  0  0  0
   24.2758   18.7466   23.0239 H   0  0  0  0  0  0  0  0  0  0  0  0
  1  2  1  0  0  0  0
  1  3  2  0  0  0  0
  1  4  1  0  0  0  0
  4  5  1  0  0  0  0
  4  6  1  0  0  0  0
  4  7  1  0  0  0  0
  7  8  1  0  0  0  0
  7  9  1  0  0  0  0
  7 10  1  0  0  0  0
 10 11  1  0  0  0  0
 10 12  1  0  0  0  0
 10 13  1  0  0  0  0
 13 14  1  0  0  0  0
 13 15  1  0  0  0  0
 13 16  1  0  0  0  0
 16 17  1  0  0  0  0
 16 18  1  0  0  0  0
 16 19  1  0  0  0  0
 19 20  1  0  0  0  0
 19 21  1  0  0  0  0
 19 22  1  0  0  0  0
M  END
> <VConfSearch Rank>
582

> <Conf_Id>
10

> <Delta U+W>
-1.291

> <U+W>
-54.451

> <U>
5.779

> <W>
-60.230

> <W(PB)>
-62.557

> <W(SA)>
2.328

> <Valence>
7.101

> <Coulomb>
-2.079

> <VdW>
0.757

> <VdW6>
-6.496

> <VdW12>
7.253

> <Bond>
0.100

> <Angle>
2.262

> <Pdih>
4.738

> <Idih>
0.001

> <Tether>
0.000

$$$$
VeraChem MOL file


 22 21  0  0  0  0  0  0  0  0999 V2000     
   22.5501   17.1313   20.0339 C   0  0  0  0  0  0  0  0  0  0  0  0
   22.9214   17.8048   19.0932 O   0  5  0  0  0  0  0  0  0  0  0  0
   23.2318   16.2725   20.5575 O   0  0  0  0  0  0  0  0  0  0  0  0
   21.1599   17.3929   20.6023 C   0  0  0  0  0  0  0  0  0  0  0  0
   20.7638   16.4442   20.9842 H   0  0  0  0  0  0  0  0  0  0  0  0
   20.5085   17.7079   19.7782 H   0  0  0  0  0  0  0  0  0  0  0  0
   21.1591   18.4619   21.7228 C   0  0  0  0  0  0  0  0  0  0  0  0
   21.8260   18.1377   22.5337 H   0  0  0  0  0  0  0  0  0  0  0  0
   21.5699   19.4016   21.3281 H   0  0  0  0  0  0  0  0  0  0  0  0
   19.7408   18.7084   22.2812 C   0  0  0  0  0  0  0  0  0  0  0  0
   19.3335   17.7679   22.6768 H   0  0  0  0  0  0  0  0  0  0  0  0
   19.0816   19.0247   21.4623 H   0  0  0  0  0  0  0  0  0  0  0  0
   19.7449   19.7789   23.3967 C   0  0  0  0  0  0  0  0  0  0  0  0
   20.4617   19.4819   24.1745 H   0  0  0  0  0  0  0  0  0  0  0  0
   20.1039   20.7347   22.9913 H   0  0  0  0  0  0  0  0  0  0  0  0
   18.3616   19.9843   24.0568 C   0  0  0  0  0  0  0  0  0  0  0  0
   18.4760   20.6677   24.9095 H   0  0  0  0  0  0  0  0  0  0  0  0
   18.0019   19.0314   24.4691 H   0  0  0  0  0  0  0  0  0  0  0  0
   17.3044   20.5652   23.0929 C   0  0  0  0  0  0  0  0  0  0  0  0
   16.3701   20.7750   23.6294 H   0  0  0  0  0  0  0  0  0  0  0  0
   17.0714   19.8627   22.2830 H   0  0  0  0  0  0  0  0  0  0  0  0
   17.6550   21.5041   22.6448 H   0  0  0  0  0  0  0  0  0  0  0  0
  1  2  1  0  0  0  0
  1  3  2  0  0  0  0
  1  4  1  0  0  0  0
  4  5  1  0  0  0  0
  4  6  1  0  0  0  0
  4  7  1  0  0  0  0
  7  8  1  0  0  0  0
  7  9  1  0  0  0  0
  7 10  1  0  0  0  0
 10 11  1  0  0  0  0
 10 12  1  0  0  0  0
 10 13  1  0  0  0  0
 13 14  1  0  0  0  0
 13 15  1  0  0  0  0
 13 16  1  0  0  0  0
 16 17  1  0  0  0  0
 16 18  1  0  0  0  0
 16 19  1  0  0  0  0
 19 20  1  0  0  0  0
 19 21  1  0  0  0  0
 19 22  1  0  0  0  0
M  END
> <VConfSearch Rank>
583

> <Conf_Id>
37

> <Delta U+W>
-0.345

> <U+W>
-53.504

> <U>
6.751

> <W>
-60.255

> <W(PB)>
-62.592

> <W(SA)>
2.336

> <Valence>
7.602

> <Coulomb>
-1.744

> <VdW>
0.894

> <VdW6>
-7.110

> <VdW12>
8.004

> <Bond>
0.131

> <Angle>
2.489

> <Pdih>
4.982

> <Idih>
0.001

> <Tether>
0.000

$$$$
VeraChem MOL file


 22 21  0  0  0  0  0  0  0  0999 V2000     
   22.7227   16.5259   21.5407 C   0  0  0  0  0  0  0  0  0  0  0  0
   22.4220   15.6452   20.7595 O   0  5  0  0  0  0  0  0  0  0  0  0
   23.5778   16.4043   22.3954 O   0  0  0  0  0  0  0  0  0  0  0  0
   21.9705   17.8494   21.4580 C   0  0  0  0  0  0  0  0  0  0  0  0
   21.7040   18.0249   20.4088 H   0  0  0  0  0  0  0  0  0  0  0  0
   22.6570   18.6508   21.7566 H   0  0  0  0  0  0  0  0  0  0  0  0
   20.7004   17.8761   22.3437 C   0  0  0  0  0  0  0  0  0  0  0  0
   20.0293   17.0606   22.0406 H   0  0  0  0  0  0  0  0  0  0  0  0
   20.9829   17.6854   23.3884 H   0  0  0  0  0  0  0  0  0  0  0  0
   19.9573   19.2259   22.2426 C   0  0  0  0  0  0  0  0  0  0  0  0
   19.6865   19.4098   21.1947 H   0  0  0  0  0  0  0  0  0  0  0  0
   20.6299   20.0390   22.5483 H   0  0  0  0  0  0  0  0  0  0  0  0
   18.6883   19.2461   23.1254 C   0  0  0  0  0  0  0  0  0  0  0  0
   17.9910   18.4666   22.7893 H   0  0  0  0  0  0  0  0  0  0  0  0
   18.9665   18.9909   24.1571 H   0  0  0  0  0  0  0  0  0  0  0  0
   17.9682   20.6146   23.1356 C   0  0  0  0  0  0  0  0  0  0  0  0
   18.6608   21.3960   23.4775 H   0  0  0  0  0  0  0  0  0  0  0  0
   17.1534   20.5785   23.8719 H   0  0  0  0  0  0  0  0  0  0  0  0
   17.3801   21.0062   21.7627 C   0  0  0  0  0  0  0  0  0  0  0  0
   16.7068   20.2250   21.3863 H   0  0  0  0  0  0  0  0  0  0  0  0
   18.1707   21.1673   21.0192 H   0  0  0  0  0  0  0  0  0  0  0  0
   16.8052   21.9378   21.8431 H   0  0  0  0  0  0  0  0  0  0  0  0
  1  2  1  0  0  0  0
  1  3  2  0  0  0  0
  1  4  1  0  0  0  0
  4  5  1  0  0  0  0
  4  6  1  0  0  0  0
  4  7  1  0  0  0  0
  7  8  1  0  0  0  0
  7  9  1  0  0  0  0
  7 10  1  0  0  0  0
 10 11  1  0  0  0  0
 10 12  1  0  0  0  0
 10 13  1  0  0  0  0
 13 14  1  0  0  0  0
 13 15  1  0  0  0  0
 13 16  1  0  0  0  0
 16 17  1  0  0  0  0
 16 18  1  0  0  0  0
 16 19  1  0  0  0  0
 19 20  1  0  0  0  0
 19 21  1  0  0  0  0
 19 22  1  0  0  0  0
M  END
> <VConfSearch Rank>
584

> <Conf_Id>
38

> <Delta U+W>
-0.439

> <U+W>
-53.598

> <U>
6.751

> <W>
-60.350

> <W(PB)>
-62.659

> <W(SA)>
2.309

> <Valence>
7.602

> <Coulomb>
-1.744

> <VdW>
0.893

> <VdW6>
-7.110

> <VdW12>
8.004

> <Bond>
0.131

> <Angle>
2.489

> <Pdih>
4.981

> <Idih>
0.001

> <Tether>
0.000

$$$$
VeraChem MOL file


 22 21  0  0  0  0  0  0  0  0999 V2000     
   18.2720   22.3497   22.9578 C   0  0  0  0  0  0  0  0  0  0  0  0
   18.0937   22.7790   24.0805 O   0  5  0  0  0  0  0  0  0  0  0  0
   17.6603   22.7402   21.9832 O   0  0  0  0  0  0  0  0  0  0  0  0
   19.3042   21.2443   22.7651 C   0  0  0  0  0  0  0  0  0  0  0  0
   20.1005   21.3901   23.5048 H   0  0  0  0  0  0  0  0  0  0  0  0
   19.7521   21.3769   21.7741 H   0  0  0  0  0  0  0  0  0  0  0  0
   18.6958   19.8247   22.9067 C   0  0  0  0  0  0  0  0  0  0  0  0
   18.1722   19.7618   23.8707 H   0  0  0  0  0  0  0  0  0  0  0  0
   17.9337   19.6722   22.1300 H   0  0  0  0  0  0  0  0  0  0  0  0
   19.7455   18.6896   22.8398 C   0  0  0  0  0  0  0  0  0  0  0  0
   19.2425   17.7471   23.0904 H   0  0  0  0  0  0  0  0  0  0  0  0
   20.5102   18.8497   23.6119 H   0  0  0  0  0  0  0  0  0  0  0  0
   20.4222   18.5583   21.4531 C   0  0  0  0  0  0  0  0  0  0  0  0
   19.6571   18.4000   20.6808 H   0  0  0  0  0  0  0  0  0  0  0  0
   20.9282   19.4992   21.2025 H   0  0  0  0  0  0  0  0  0  0  0  0
   21.4681   17.4209   21.3855 C   0  0  0  0  0  0  0  0  0  0  0  0
   22.2290   17.5694   22.1641 H   0  0  0  0  0  0  0  0  0  0  0  0
   21.9936   17.4839   20.4227 H   0  0  0  0  0  0  0  0  0  0  0  0
   20.8524   16.0113   21.5214 C   0  0  0  0  0  0  0  0  0  0  0  0
   20.4195   15.8561   22.5174 H   0  0  0  0  0  0  0  0  0  0  0  0
   21.6202   15.2415   21.3704 H   0  0  0  0  0  0  0  0  0  0  0  0
   20.0640   15.8530   20.7740 H   0  0  0  0  0  0  0  0  0  0  0  0
  1  2  1  0  0  0  0
  1  3  2  0  0  0  0
  1  4  1  0  0  0  0
  4  5  1  0  0  0  0
  4  6  1  0  0  0  0
  4  7  1  0  0  0  0
  7  8  1  0  0  0  0
  7  9  1  0  0  0  0
  7 10  1  0  0  0  0
 10 11  1  0  0  0  0
 10 12  1  0  0  0  0
 10 13  1  0  0  0  0
 13 14  1  0  0  0  0
 13 15  1  0  0  0  0
 13 16  1  0  0  0  0
 16 17  1  0  0  0  0
 16 18  1  0  0  0  0
 16 19  1  0  0  0  0
 19 20  1  0  0  0  0
 19 21  1  0  0  0  0
 19 22  1  0  0  0  0
M  END
> <VConfSearch Rank>
585

> <Conf_Id>
60

> <Delta U+W>
0.386

> <U+W>
-52.773

> <U>
7.689

> <W>
-60.463

> <W(PB)>
-62.772

> <W(SA)>
2.309

> <Valence>
8.197

> <Coulomb>
-1.561

> <VdW>
1.053

> <VdW6>
-7.737

> <VdW12>
8.790

> <Bond>
0.181

> <Angle>
2.780

> <Pdih>
5.235

> <Idih>
0.001

> <Tether>
0.000

$$$$
VeraChem MOL file


 22 21  0  0  0  0  0  0  0  0999 V2000     
   16.5527   17.9442   20.6958 C   0  0  0  0  0  0  0  0  0  0  0  0
   16.4430   18.4375   19.5908 O   0  5  0  0  0  0  0  0  0  0  0  0
   15.6141   17.5147   21.3370 O   0  0  0  0  0  0  0  0  0  0  0  0
   17.9413   17.8810   21.3219 C   0  0  0  0  0  0  0  0  0  0  0  0
   18.6648   17.7352   20.5121 H   0  0  0  0  0  0  0  0  0  0  0  0
   17.9854   16.9920   21.9623 H   0  0  0  0  0  0  0  0  0  0  0  0
   18.2866   19.1501   22.1440 C   0  0  0  0  0  0  0  0  0  0  0  0
   18.2875   20.0276   21.4826 H   0  0  0  0  0  0  0  0  0  0  0  0
   17.4891   19.3186   22.8809 H   0  0  0  0  0  0  0  0  0  0  0  0
   19.6383   19.0571   22.8917 C   0  0  0  0  0  0  0  0  0  0  0  0
   19.6371   18.1745   23.5456 H   0  0  0  0  0  0  0  0  0  0  0  0
   19.7232   19.9316   23.5492 H   0  0  0  0  0  0  0  0  0  0  0  0
   20.8627   19.0047   21.9451 C   0  0  0  0  0  0  0  0  0  0  0  0
   20.7806   18.1289   21.2892 H   0  0  0  0  0  0  0  0  0  0  0  0
   20.8627   19.8865   21.2899 H   0  0  0  0  0  0  0  0  0  0  0  0
   22.2136   18.9163   22.6929 C   0  0  0  0  0  0  0  0  0  0  0  0
   23.0118   18.7457   21.9573 H   0  0  0  0  0  0  0  0  0  0  0  0
   22.2133   18.0418   23.3582 H   0  0  0  0  0  0  0  0  0  0  0  0
   22.5515   20.1867   23.5033 C   0  0  0  0  0  0  0  0  0  0  0  0
   22.5238   21.0792   22.8647 H   0  0  0  0  0  0  0  0  0  0  0  0
   23.5586   20.1104   23.9333 H   0  0  0  0  0  0  0  0  0  0  0  0
   21.8480   20.3336   24.3320 H   0  0  0  0  0  0  0  0  0  0  0  0
  1  2  1  0  0  0  0
  1  3  2  0  0  0  0
  1  4  1  0  0  0  0
  4  5  1  0  0  0  0
  4  6  1  0  0  0  0
  4  7  1  0  0  0  0
  7  8  1  0  0  0  0
  7  9  1  0  0  0  0
  7 10  1  0  0  0  0
 10 11  1  0  0  0  0
 10 12  1  0  0  0  0
 10 13  1  0  0  0  0
 13 14  1  0  0  0  0
 13 15  1  0  0  0  0
 13 16  1  0  0  0  0
 16 17  1  0  0  0  0
 16 18  1  0  0  0  0
 16 19  1  0  0  0  0
 19 20  1  0  0  0  0
 19 21  1  0  0  0  0
 19 22  1  0  0  0  0
M  END
> <VConfSearch Rank>
586

> <Conf_Id>
28

> <Delta U+W>
0.351

> <U+W>
-52.808

> <U>
7.689

> <W>
-60.498

> <W(PB)>
-62.768

> <W(SA)>
2.270

> <Valence>
8.197

> <Coulomb>
-1.561

> <VdW>
1.053

> <VdW6>
-7.737

> <VdW12>
8.791

> <Bond>
0.181

> <Angle>
2.780

> <Pdih>
5.235

> <Idih>
0.001

> <Tether>
0.000

$$$$
VeraChem MOL file


 22 21  0  0  0  0  0  0  0  0999 V2000     
   17.5922   16.5196   20.5475 C   0  0  0  0  0  0  0  0  0  0  0  0
   16.5075   16.9552   20.2156 O   0  5  0  0  0  0  0  0  0  0  0  0
   18.2665   15.7890   19.8490 O   0  0  0  0  0  0  0  0  0  0  0  0
   18.1466   16.9283   21.9076 C   0  0  0  0  0  0  0  0  0  0  0  0
   18.7525   16.0989   22.2919 H   0  0  0  0  0  0  0  0  0  0  0  0
   17.3018   17.0585   22.5946 H   0  0  0  0  0  0  0  0  0  0  0  0
   18.9924   18.2242   21.8477 C   0  0  0  0  0  0  0  0  0  0  0  0
   19.8184   18.0760   21.1397 H   0  0  0  0  0  0  0  0  0  0  0  0
   18.3746   19.0425   21.4528 H   0  0  0  0  0  0  0  0  0  0  0  0
   19.5457   18.6125   23.2384 C   0  0  0  0  0  0  0  0  0  0  0  0
   20.2058   17.8169   23.6102 H   0  0  0  0  0  0  0  0  0  0  0  0
   18.7102   18.6804   23.9486 H   0  0  0  0  0  0  0  0  0  0  0  0
   20.3048   19.9605   23.2453 C   0  0  0  0  0  0  0  0  0  0  0  0
   19.6437   20.7571   22.8774 H   0  0  0  0  0  0  0  0  0  0  0  0
   20.5502   20.2164   24.2851 H   0  0  0  0  0  0  0  0  0  0  0  0
   21.6073   19.9389   22.4138 C   0  0  0  0  0  0  0  0  0  0  0  0
   21.3775   19.7620   21.3549 H   0  0  0  0  0  0  0  0  0  0  0  0
   22.2458   19.1091   22.7466 H   0  0  0  0  0  0  0  0  0  0  0  0
   22.3827   21.2654   22.5433 C   0  0  0  0  0  0  0  0  0  0  0  0
   22.6637   21.4565   23.5873 H   0  0  0  0  0  0  0  0  0  0  0  0
   21.7765   22.1103   22.1911 H   0  0  0  0  0  0  0  0  0  0  0  0
   23.3026   21.2356   21.9450 H   0  0  0  0  0  0  0  0  0  0  0  0
  1  2  1  0  0  0  0
  1  3  2  0  0  0  0
  1  4  1  0  0  0  0
  4  5  1  0  0  0  0
  4  6  1  0  0  0  0
  4  7  1  0  0  0  0
  7  8  1  0  0  0  0
  7  9  1  0  0  0  0
  7 10  1  0  0  0  0
 10 11  1  0  0  0  0
 10 12  1  0  0  0  0
 10 13  1  0  0  0  0
 13 14  1  0  0  0  0
 13 15  1  0  0  0  0
 13 16  1  0  0  0  0
 16 17  1  0  0  0  0
 16 18  1  0  0  0  0
 16 19  1  0  0  0  0
 19 20  1  0  0  0  0
 19 21  1  0  0  0  0
 19 22  1  0  0  0  0
M  END
> <VConfSearch Rank>
587

> <Conf_Id>
50

> <Delta U+W>
-0.486

> <U+W>
-53.646

> <U>
7.026

> <W>
-60.672

> <W(PB)>
-62.964

> <W(SA)>
2.292

> <Valence>
7.637

> <Coulomb>
-1.488

> <VdW>
0.877

> <VdW6>
-7.165

> <VdW12>
8.043

> <Bond>
0.134

> <Angle>
2.513

> <Pdih>
4.990

> <Idih>
0.001

> <Tether>
0.000

$$$$
VeraChem MOL file


 22 21  0  0  0  0  0  0  0  0999 V2000     
   22.3168   17.7900   19.8478 C   0  0  0  0  0  0  0  0  0  0  0  0
   21.9164   17.1526   18.8939 O   0  5  0  0  0  0  0  0  0  0  0  0
   23.3061   17.4936   20.4879 O   0  0  0  0  0  0  0  0  0  0  0  0
   21.5221   19.0179   20.2780 C   0  0  0  0  0  0  0  0  0  0  0  0
   21.0803   19.4688   19.3812 H   0  0  0  0  0  0  0  0  0  0  0  0
   22.2244   19.7490   20.6962 H   0  0  0  0  0  0  0  0  0  0  0  0
   20.4168   18.6877   21.3111 C   0  0  0  0  0  0  0  0  0  0  0  0
   19.7274   17.9482   20.8808 H   0  0  0  0  0  0  0  0  0  0  0  0
   20.8808   18.2200   22.1895 H   0  0  0  0  0  0  0  0  0  0  0  0
   19.6304   19.9506   21.7328 C   0  0  0  0  0  0  0  0  0  0  0  0
   19.2396   20.4446   20.8327 H   0  0  0  0  0  0  0  0  0  0  0  0
   20.3107   20.6686   22.2109 H   0  0  0  0  0  0  0  0  0  0  0  0
   18.4449   19.6506   22.6804 C   0  0  0  0  0  0  0  0  0  0  0  0
   17.8724   20.5770   22.8255 H   0  0  0  0  0  0  0  0  0  0  0  0
   17.7623   18.9357   22.2011 H   0  0  0  0  0  0  0  0  0  0  0  0
   18.8807   19.1095   24.0609 C   0  0  0  0  0  0  0  0  0  0  0  0
   19.6042   19.7988   24.5176 H   0  0  0  0  0  0  0  0  0  0  0  0
   19.3876   18.1425   23.9456 H   0  0  0  0  0  0  0  0  0  0  0  0
   17.6746   18.9335   25.0054 C   0  0  0  0  0  0  0  0  0  0  0  0
   16.9469   18.2270   24.5851 H   0  0  0  0  0  0  0  0  0  0  0  0
   17.1647   19.8909   25.1749 H   0  0  0  0  0  0  0  0  0  0  0  0
   17.9997   18.5458   25.9796 H   0  0  0  0  0  0  0  0  0  0  0  0
  1  2  1  0  0  0  0
  1  3  2  0  0  0  0
  1  4  1  0  0  0  0
  4  5  1  0  0  0  0
  4  6  1  0  0  0  0
  4  7  1  0  0  0  0
  7  8  1  0  0  0  0
  7  9  1  0  0  0  0
  7 10  1  0  0  0  0
 10 11  1  0  0  0  0
 10 12  1  0  0  0  0
 10 13  1  0  0  0  0
 13 14  1  0  0  0  0
 13 15  1  0  0  0  0
 13 16  1  0  0  0  0
 16 17  1  0  0  0  0
 16 18  1  0  0  0  0
 16 19  1  0  0  0  0
 19 20  1  0  0  0  0
 19 21  1  0  0  0  0
 19 22  1  0  0  0  0
M  END
> <VConfSearch Rank>
588

> <Conf_Id>
51

> <Delta U+W>
-0.517

> <U+W>
-53.677

> <U>
7.026

> <W>
-60.703

> <W(PB)>
-63.007

> <W(SA)>
2.304

> <Valence>
7.638

> <Coulomb>
-1.488

> <VdW>
0.877

> <VdW6>
-7.165

> <VdW12>
8.042

> <Bond>
0.134

> <Angle>
2.513

> <Pdih>
4.990

> <Idih>
0.001

> <Tether>
0.000

$$$$
VeraChem MOL file


 22 21  0  0  0  0  0  0  0  0999 V2000     
   19.3227   21.2077   24.8339 C   0  0  0  0  0  0  0  0  0  0  0  0
   18.5937   20.7850   25.7095 O   0  5  0  0  0  0  0  0  0  0  0  0
   20.4618   21.5829   25.0302 O   0  0  0  0  0  0  0  0  0  0  0  0
   18.7689   21.2887   23.4141 C   0  0  0  0  0  0  0  0  0  0  0  0
   19.3886   21.9847   22.8356 H   0  0  0  0  0  0  0  0  0  0  0  0
   17.7682   21.7322   23.4773 H   0  0  0  0  0  0  0  0  0  0  0  0
   18.6840   19.9194   22.6911 C   0  0  0  0  0  0  0  0  0  0  0  0
   18.0840   19.2251   23.2959 H   0  0  0  0  0  0  0  0  0  0  0  0
   18.1513   20.0512   21.7396 H   0  0  0  0  0  0  0  0  0  0  0  0
   20.0750   19.3057   22.4154 C   0  0  0  0  0  0  0  0  0  0  0  0
   20.6077   19.1548   23.3646 H   0  0  0  0  0  0  0  0  0  0  0  0
   20.6752   20.0089   21.8219 H   0  0  0  0  0  0  0  0  0  0  0  0
   19.9679   17.9593   21.6677 C   0  0  0  0  0  0  0  0  0  0  0  0
   19.3675   17.2566   22.2619 H   0  0  0  0  0  0  0  0  0  0  0  0
   19.4381   18.1081   20.7168 H   0  0  0  0  0  0  0  0  0  0  0  0
   21.3566   17.3454   21.3928 C   0  0  0  0  0  0  0  0  0  0  0  0
   21.8889   17.1934   22.3420 H   0  0  0  0  0  0  0  0  0  0  0  0
   21.9595   18.0448   20.7971 H   0  0  0  0  0  0  0  0  0  0  0  0
   21.2456   16.0007   20.6466 C   0  0  0  0  0  0  0  0  0  0  0  0
   20.6734   15.2712   21.2347 H   0  0  0  0  0  0  0  0  0  0  0  0
   22.2416   15.5787   20.4595 H   0  0  0  0  0  0  0  0  0  0  0  0
   20.7445   16.1290   19.6782 H   0  0  0  0  0  0  0  0  0  0  0  0
  1  2  1  0  0  0  0
  1  3  2  0  0  0  0
  1  4  1  0  0  0  0
  4  5  1  0  0  0  0
  4  6  1  0  0  0  0
  4  7  1  0  0  0  0
  7  8  1  0  0  0  0
  7  9  1  0  0  0  0
  7 10  1  0  0  0  0
 10 11  1  0  0  0  0
 10 12  1  0  0  0  0
 10 13  1  0  0  0  0
 13 14  1  0  0  0  0
 13 15  1  0  0  0  0
 13 16  1  0  0  0  0
 16 17  1  0  0  0  0
 16 18  1  0  0  0  0
 16 19  1  0  0  0  0
 19 20  1  0  0  0  0
 19 21  1  0  0  0  0
 19 22  1  0  0  0  0
M  END
> <VConfSearch Rank>
589

> <Conf_Id>
43

> <Delta U+W>
-0.129

> <U+W>
-53.289

> <U>
7.937

> <W>
-61.225

> <W(PB)>
-63.523

> <W(SA)>
2.297

> <Valence>
7.358

> <Coulomb>
-0.022

> <VdW>
0.601

> <VdW6>
-7.363

> <VdW12>
7.964

> <Bond>
0.121

> <Angle>
2.425

> <Pdih>
4.811

> <Idih>
0.000

> <Tether>
0.000

$$$$
VeraChem MOL file


 22 21  0  0  0  0  0  0  0  0999 V2000     
   19.3220   15.9826   23.8730 C   0  0  0  0  0  0  0  0  0  0  0  0
   20.3810   15.4502   24.1414 O   0  5  0  0  0  0  0  0  0  0  0  0
   18.5040   15.5062   23.1111 O   0  0  0  0  0  0  0  0  0  0  0  0
   18.9958   17.3134   24.5451 C   0  0  0  0  0  0  0  0  0  0  0  0
   19.2390   17.2116   25.6093 H   0  0  0  0  0  0  0  0  0  0  0  0
   17.9139   17.4819   24.4815 H   0  0  0  0  0  0  0  0  0  0  0  0
   19.7622   18.5241   23.9521 C   0  0  0  0  0  0  0  0  0  0  0  0
   19.5742   19.4065   24.5787 H   0  0  0  0  0  0  0  0  0  0  0  0
   20.8426   18.3285   23.9972 H   0  0  0  0  0  0  0  0  0  0  0  0
   19.3469   18.8352   22.4966 C   0  0  0  0  0  0  0  0  0  0  0  0
   18.2643   19.0171   22.4548 H   0  0  0  0  0  0  0  0  0  0  0  0
   19.5480   17.9626   21.8598 H   0  0  0  0  0  0  0  0  0  0  0  0
   20.0987   20.0623   21.9374 C   0  0  0  0  0  0  0  0  0  0  0  0
   19.8970   20.9370   22.5709 H   0  0  0  0  0  0  0  0  0  0  0  0
   21.1813   19.8796   21.9795 H   0  0  0  0  0  0  0  0  0  0  0  0
   19.6851   20.3731   20.4837 C   0  0  0  0  0  0  0  0  0  0  0  0
   18.6029   20.5580   20.4379 H   0  0  0  0  0  0  0  0  0  0  0  0
   19.8872   19.5009   19.8466 H   0  0  0  0  0  0  0  0  0  0  0  0
   20.4383   21.5986   19.9285 C   0  0  0  0  0  0  0  0  0  0  0  0
   20.2290   22.4935   20.5291 H   0  0  0  0  0  0  0  0  0  0  0  0
   20.1322   21.8050   18.8947 H   0  0  0  0  0  0  0  0  0  0  0  0
   21.5229   21.4283   19.9333 H   0  0  0  0  0  0  0  0  0  0  0  0
  1  2  1  0  0  0  0
  1  3  2  0  0  0  0
  1  4  1  0  0  0  0
  4  5  1  0  0  0  0
  4  6  1  0  0  0  0
  4  7  1  0  0  0  0
  7  8  1  0  0  0  0
  7  9  1  0  0  0  0
  7 10  1  0  0  0  0
 10 11  1  0  0  0  0
 10 12  1  0  0  0  0
 10 13  1  0  0  0  0
 13 14  1  0  0  0  0
 13 15  1  0  0  0  0
 13 16  1  0  0  0  0
 16 17  1  0  0  0  0
 16 18  1  0  0  0  0
 16 19  1  0  0  0  0
 19 20  1  0  0  0  0
 19 21  1  0  0  0  0
 19 22  1  0  0  0  0
M  END
> <VConfSearch Rank>
590

> <Conf_Id>
44

> <Delta U+W>
-0.155

> <U+W>
-53.314

> <U>
7.937

> <W>
-61.252

> <W(PB)>
-63.556

> <W(SA)>
2.304

> <Valence>
7.358

> <Coulomb>
-0.021

> <VdW>
0.600

> <VdW6>
-7.363

> <VdW12>
7.964

> <Bond>
0.121

> <Angle>
2.425

> <Pdih>
4.811

> <Idih>
0.001

> <Tether>
0.000

$$$$
VeraChem MOL file


 22 21  0  0  0  0  0  0  0  0999 V2000     
   21.3297   15.9549   23.0648 C   0  0  0  0  0  0  0  0  0  0  0  0
   21.2216   15.6777   24.2432 O   0  5  0  0  0  0  0  0  0  0  0  0
   22.3854   15.9328   22.4632 O   0  0  0  0  0  0  0  0  0  0  0  0
   20.0665   16.3326   22.2960 C   0  0  0  0  0  0  0  0  0  0  0  0
   19.2929   15.6016   22.5589 H   0  0  0  0  0  0  0  0  0  0  0  0
   20.2613   16.2166   21.2229 H   0  0  0  0  0  0  0  0  0  0  0  0
   19.5485   17.7638   22.5943 C   0  0  0  0  0  0  0  0  0  0  0  0
   18.5653   17.8828   22.1217 H   0  0  0  0  0  0  0  0  0  0  0  0
   19.3966   17.8775   23.6766 H   0  0  0  0  0  0  0  0  0  0  0  0
   20.5103   18.8624   22.0810 C   0  0  0  0  0  0  0  0  0  0  0  0
   20.6278   18.7732   20.9924 H   0  0  0  0  0  0  0  0  0  0  0  0
   21.5069   18.6997   22.5137 H   0  0  0  0  0  0  0  0  0  0  0  0
   20.0542   20.2972   22.4377 C   0  0  0  0  0  0  0  0  0  0  0  0
   19.9366   20.3858   23.5264 H   0  0  0  0  0  0  0  0  0  0  0  0
   20.8529   20.9961   22.1540 H   0  0  0  0  0  0  0  0  0  0  0  0
   18.7446   20.7217   21.7354 C   0  0  0  0  0  0  0  0  0  0  0  0
   17.9135   20.0855   22.0669 H   0  0  0  0  0  0  0  0  0  0  0  0
   18.8435   20.5812   20.6502 H   0  0  0  0  0  0  0  0  0  0  0  0
   18.3965   22.1945   22.0313 C   0  0  0  0  0  0  0  0  0  0  0  0
   18.2649   22.3577   23.1090 H   0  0  0  0  0  0  0  0  0  0  0  0
   17.4631   22.4797   21.5288 H   0  0  0  0  0  0  0  0  0  0  0  0
   19.1904   22.8651   21.6771 H   0  0  0  0  0  0  0  0  0  0  0  0
  1  2  1  0  0  0  0
  1  3  2  0  0  0  0
  1  4  1  0  0  0  0
  4  5  1  0  0  0  0
  4  6  1  0  0  0  0
  4  7  1  0  0  0  0
  7  8  1  0  0  0  0
  7  9  1  0  0  0  0
  7 10  1  0  0  0  0
 10 11  1  0  0  0  0
 10 12  1  0  0  0  0
 10 13  1  0  0  0  0
 13 14  1  0  0  0  0
 13 15  1  0  0  0  0
 13 16  1  0  0  0  0
 16 17  1  0  0  0  0
 16 18  1  0  0  0  0
 16 19  1  0  0  0  0
 19 20  1  0  0  0  0
 19 21  1  0  0  0  0
 19 22  1  0  0  0  0
M  END
> <VConfSearch Rank>
591

> <Conf_Id>
53

> <Delta U+W>
0.723

> <U+W>
-52.436

> <U>
8.587

> <W>
-61.022

> <W(PB)>
-63.285

> <W(SA)>
2.263

> <Valence>
7.933

> <Coulomb>
-0.124

> <VdW>
0.778

> <VdW6>
-7.981

> <VdW12>
8.759

> <Bond>
0.160

> <Angle>
2.698

> <Pdih>
5.074

> <Idih>
0.001

> <Tether>
0.000

$$$$
VeraChem MOL file


 22 21  0  0  0  0  0  0  0  0999 V2000     
   22.6791   17.9134   23.5773 C   0  0  0  0  0  0  0  0  0  0  0  0
   22.5749   16.7405   23.8773 O   0  5  0  0  0  0  0  0  0  0  0  0
   23.7190   18.5373   23.6536 O   0  0  0  0  0  0  0  0  0  0  0  0
   21.4426   18.6363   23.0554 C   0  0  0  0  0  0  0  0  0  0  0  0
   21.5160   19.6910   23.3460 H   0  0  0  0  0  0  0  0  0  0  0  0
   20.5708   18.2123   23.5662 H   0  0  0  0  0  0  0  0  0  0  0  0
   21.2790   18.5134   21.5194 C   0  0  0  0  0  0  0  0  0  0  0  0
   22.2199   18.8173   21.0399 H   0  0  0  0  0  0  0  0  0  0  0  0
   21.1268   17.4577   21.2556 H   0  0  0  0  0  0  0  0  0  0  0  0
   20.1287   19.3672   20.9291 C   0  0  0  0  0  0  0  0  0  0  0  0
   20.1448   19.2346   19.8386 H   0  0  0  0  0  0  0  0  0  0  0  0
   20.3234   20.4344   21.1025 H   0  0  0  0  0  0  0  0  0  0  0  0
   18.7156   18.9885   21.4403 C   0  0  0  0  0  0  0  0  0  0  0  0
   18.0040   19.0995   20.6106 H   0  0  0  0  0  0  0  0  0  0  0  0
   18.6890   17.9279   21.7254 H   0  0  0  0  0  0  0  0  0  0  0  0
   18.2297   19.8736   22.6113 C   0  0  0  0  0  0  0  0  0  0  0  0
   18.2070   20.9248   22.2924 H   0  0  0  0  0  0  0  0  0  0  0  0
   18.9284   19.8167   23.4544 H   0  0  0  0  0  0  0  0  0  0  0  0
   16.8243   19.4569   23.0895 C   0  0  0  0  0  0  0  0  0  0  0  0
   16.0911   19.5421   22.2768 H   0  0  0  0  0  0  0  0  0  0  0  0
   16.4908   20.0984   23.9155 H   0  0  0  0  0  0  0  0  0  0  0  0
   16.8231   18.4183   23.4452 H   0  0  0  0  0  0  0  0  0  0  0  0
  1  2  1  0  0  0  0
  1  3  2  0  0  0  0
  1  4  1  0  0  0  0
  4  5  1  0  0  0  0
  4  6  1  0  0  0  0
  4  7  1  0  0  0  0
  7  8  1  0  0  0  0
  7  9  1  0  0  0  0
  7 10  1  0  0  0  0
 10 11  1  0  0  0  0
 10 12  1  0  0  0  0
 10 13  1  0  0  0  0
 13 14  1  0  0  0  0
 13 15  1  0  0  0  0
 13 16  1  0  0  0  0
 16 17  1  0  0  0  0
 16 18  1  0  0  0  0
 16 19  1  0  0  0  0
 19 20  1  0  0  0  0
 19 21  1  0  0  0  0
 19 22  1  0  0  0  0
M  END
> <VConfSearch Rank>
592

> <Conf_Id>
5

> <Delta U+W>
2.167

> <U+W>
-50.993

> <U>
10.045

> <W>
-61.037

> <W(PB)>
-63.303

> <W(SA)>
2.266

> <Valence>
10.100

> <Coulomb>
-0.883

> <VdW>
0.828

> <VdW6>
-8.177

> <VdW12>
9.005

> <Bond>
0.182

> <Angle>
2.988

> <Pdih>
6.930

> <Idih>
0.001

> <Tether>
0.000

$$$$
VeraChem MOL file


 22 21  0  0  0  0  0  0  0  0999 V2000     
   19.8922   16.4311   24.6025 C   0  0  0  0  0  0  0  0  0  0  0  0
   20.3433   16.8528   25.6491 O   0  5  0  0  0  0  0  0  0  0  0  0
   19.5847   15.2694   24.4223 O   0  0  0  0  0  0  0  0  0  0  0  0
   19.7240   17.4082   23.4446 C   0  0  0  0  0  0  0  0  0  0  0  0
   19.4672   18.3848   23.8701 H   0  0  0  0  0  0  0  0  0  0  0  0
   18.8720   17.0765   22.8394 H   0  0  0  0  0  0  0  0  0  0  0  0
   20.9948   17.5213   22.5652 C   0  0  0  0  0  0  0  0  0  0  0  0
   21.8166   17.9306   23.1689 H   0  0  0  0  0  0  0  0  0  0  0  0
   21.3069   16.5111   22.2662 H   0  0  0  0  0  0  0  0  0  0  0  0
   20.8130   18.3777   21.2869 C   0  0  0  0  0  0  0  0  0  0  0  0
   20.0611   17.9199   20.6296 H   0  0  0  0  0  0  0  0  0  0  0  0
   21.7583   18.3425   20.7283 H   0  0  0  0  0  0  0  0  0  0  0  0
   20.4633   19.8644   21.5499 C   0  0  0  0  0  0  0  0  0  0  0  0
   20.8683   20.1814   22.5208 H   0  0  0  0  0  0  0  0  0  0  0  0
   20.9683   20.4799   20.7928 H   0  0  0  0  0  0  0  0  0  0  0  0
   18.9474   20.1600   21.4760 C   0  0  0  0  0  0  0  0  0  0  0  0
   18.3979   19.5435   22.1973 H   0  0  0  0  0  0  0  0  0  0  0  0
   18.5689   19.8913   20.4802 H   0  0  0  0  0  0  0  0  0  0  0  0
   18.6476   21.6475   21.7497 C   0  0  0  0  0  0  0  0  0  0  0  0
   18.9865   21.9377   22.7528 H   0  0  0  0  0  0  0  0  0  0  0  0
   17.5692   21.8426   21.6867 H   0  0  0  0  0  0  0  0  0  0  0  0
   19.1520   22.2915   21.0175 H   0  0  0  0  0  0  0  0  0  0  0  0
  1  2  1  0  0  0  0
  1  3  2  0  0  0  0
  1  4  1  0  0  0  0
  4  5  1  0  0  0  0
  4  6  1  0  0  0  0
  4  7  1  0  0  0  0
  7  8  1  0  0  0  0
  7  9  1  0  0  0  0
  7 10  1  0  0  0  0
 10 11  1  0  0  0  0
 10 12  1  0  0  0  0
 10 13  1  0  0  0  0
 13 14  1  0  0  0  0
 13 15  1  0  0  0  0
 13 16  1  0  0  0  0
 16 17  1  0  0  0  0
 16 18  1  0  0  0  0
 16 19  1  0  0  0  0
 19 20  1  0  0  0  0
 19 21  1  0  0  0  0
 19 22  1  0  0  0  0
M  END
> <VConfSearch Rank>
593

> <Conf_Id>
6

> <Delta U+W>
2.118

> <U+W>
-51.042

> <U>
10.045

> <W>
-61.086

> <W(PB)>
-63.356

> <W(SA)>
2.270

> <Valence>
10.100

> <Coulomb>
-0.883

> <VdW>
0.828

> <VdW6>
-8.177

> <VdW12>
9.004

> <Bond>
0.182

> <Angle>
2.988

> <Pdih>
6.930

> <Idih>
0.001

> <Tether>
0.000

$$$$
VeraChem MOL file


 22 21  0  0  0  0  0  0  0  0999 V2000     
   21.4889   17.3118   21.5316 C   0  0  0  0  0  0  0  0  0  0  0  0
   22.3410   18.0179   21.0288 O   0  5  0  0  0  0  0  0  0  0  0  0
   20.7072   16.6416   20.8859 O   0  0  0  0  0  0  0  0  0  0  0  0
   21.4419   17.2047   23.0547 C   0  0  0  0  0  0  0  0  0  0  0  0
   22.3955   16.7600   23.3618 H   0  0  0  0  0  0  0  0  0  0  0  0
   20.6578   16.4922   23.3381 H   0  0  0  0  0  0  0  0  0  0  0  0
   21.2453   18.5499   23.8090 C   0  0  0  0  0  0  0  0  0  0  0  0
   21.5899   18.4122   24.8428 H   0  0  0  0  0  0  0  0  0  0  0  0
   21.8956   19.3217   23.3742 H   0  0  0  0  0  0  0  0  0  0  0  0
   19.7826   19.0565   23.8632 C   0  0  0  0  0  0  0  0  0  0  0  0
   19.7442   19.9176   24.5444 H   0  0  0  0  0  0  0  0  0  0  0  0
   19.1399   18.2836   24.3063 H   0  0  0  0  0  0  0  0  0  0  0  0
   19.2121   19.4829   22.4916 C   0  0  0  0  0  0  0  0  0  0  0  0
   19.9075   20.1790   22.0029 H   0  0  0  0  0  0  0  0  0  0  0  0
   19.1208   18.6071   21.8369 H   0  0  0  0  0  0  0  0  0  0  0  0
   17.8270   20.1491   22.6321 C   0  0  0  0  0  0  0  0  0  0  0  0
   17.9044   21.0341   23.2788 H   0  0  0  0  0  0  0  0  0  0  0  0
   17.1308   19.4546   23.1224 H   0  0  0  0  0  0  0  0  0  0  0  0
   17.2556   20.5654   21.2619 C   0  0  0  0  0  0  0  0  0  0  0  0
   17.9179   21.2847   20.7626 H   0  0  0  0  0  0  0  0  0  0  0  0
   16.2709   21.0360   21.3798 H   0  0  0  0  0  0  0  0  0  0  0  0
   17.1387   19.6939   20.6044 H   0  0  0  0  0  0  0  0  0  0  0  0
  1  2  1  0  0  0  0
  1  3  2  0  0  0  0
  1  4  1  0  0  0  0
  4  5  1  0  0  0  0
  4  6  1  0  0  0  0
  4  7  1  0  0  0  0
  7  8  1  0  0  0  0
  7  9  1  0  0  0  0
  7 10  1  0  0  0  0
 10 11  1  0  0  0  0
 10 12  1  0  0  0  0
 10 13  1  0  0  0  0
 13 14  1  0  0  0  0
 13 15  1  0  0  0  0
 13 16  1  0  0  0  0
 16 17  1  0  0  0  0
 16 18  1  0  0  0  0
 16 19  1  0  0  0  0
 19 20  1  0  0  0  0
 19 21  1  0  0  0  0
 19 22  1  0  0  0  0
M  END
> <VConfSearch Rank>
594

> <Conf_Id>
8

> <Delta U+W>
1.886

> <U+W>
-51.274

> <U>
11.237

> <W>
-62.510

> <W(PB)>
-64.777

> <W(SA)>
2.267

> <Valence>
9.029

> <Coulomb>
1.667

> <VdW>
0.540

> <VdW6>
-8.825

> <VdW12>
9.365

> <Bond>
0.186

> <Angle>
3.195

> <Pdih>
5.642

> <Idih>
0.007

> <Tether>
0.000

$$$$
VeraChem MOL file


 22 21  0  0  0  0  0  0  0  0999 V2000     
   19.0195   19.3905   25.4369 C   0  0  0  0  0  0  0  0  0  0  0  0
   17.8577   19.5882   25.1404 O   0  5  0  0  0  0  0  0  0  0  0  0
   19.6485   20.0986   26.1987 O   0  0  0  0  0  0  0  0  0  0  0  0
   19.7199   18.1704   24.8454 C   0  0  0  0  0  0  0  0  0  0  0  0
   18.9624   17.5006   24.4232 H   0  0  0  0  0  0  0  0  0  0  0  0
   20.1839   17.6269   25.6767 H   0  0  0  0  0  0  0  0  0  0  0  0
   20.8047   18.5112   23.7870 C   0  0  0  0  0  0  0  0  0  0  0  0
   21.5856   19.1165   24.2677 H   0  0  0  0  0  0  0  0  0  0  0  0
   21.2932   17.5835   23.4598 H   0  0  0  0  0  0  0  0  0  0  0  0
   20.2782   19.2747   22.5465 C   0  0  0  0  0  0  0  0  0  0  0  0
   21.1403   19.5413   21.9223 H   0  0  0  0  0  0  0  0  0  0  0  0
   19.8189   20.2217   22.8612 H   0  0  0  0  0  0  0  0  0  0  0  0
   19.2645   18.4602   21.7060 C   0  0  0  0  0  0  0  0  0  0  0  0
   19.7133   17.5036   21.4059 H   0  0  0  0  0  0  0  0  0  0  0  0
   18.3922   18.2169   22.3263 H   0  0  0  0  0  0  0  0  0  0  0  0
   18.7618   19.2126   20.4518 C   0  0  0  0  0  0  0  0  0  0  0  0
   18.3263   20.1770   20.7479 H   0  0  0  0  0  0  0  0  0  0  0  0
   17.9477   18.6318   19.9968 H   0  0  0  0  0  0  0  0  0  0  0  0
   19.8599   19.4404   19.3901 C   0  0  0  0  0  0  0  0  0  0  0  0
   20.6401   20.1182   19.7578 H   0  0  0  0  0  0  0  0  0  0  0  0
   19.4307   19.8893   18.4850 H   0  0  0  0  0  0  0  0  0  0  0  0
   20.3333   18.4919   19.1047 H   0  0  0  0  0  0  0  0  0  0  0  0
  1  2  1  0  0  0  0
  1  3  2  0  0  0  0
  1  4  1  0  0  0  0
  4  5  1  0  0  0  0
  4  6  1  0  0  0  0
  4  7  1  0  0  0  0
  7  8  1  0  0  0  0
  7  9  1  0  0  0  0
  7 10  1  0  0  0  0
 10 11  1  0  0  0  0
 10 12  1  0  0  0  0
 10 13  1  0  0  0  0
 13 14  1  0  0  0  0
 13 15  1  0  0  0  0
 13 16  1  0  0  0  0
 16 17  1  0  0  0  0
 16 18  1  0  0  0  0
 16 19  1  0  0  0  0
 19 20  1  0  0  0  0
 19 21  1  0  0  0  0
 19 22  1  0  0  0  0
M  END
> <VConfSearch Rank>
595

> <Conf_Id>
93

> <Delta U+W>
1.836

> <U+W>
-51.323

> <U>
10.427

> <W>
-61.751

> <W(PB)>
-63.980

> <W(SA)>
2.230

> <Valence>
8.446

> <Coulomb>
1.306

> <VdW>
0.676

> <VdW6>
-8.928

> <VdW12>
9.604

> <Bond>
0.209

> <Angle>
3.066

> <Pdih>
5.170

> <Idih>
0.001

> <Tether>
0.000

$$$$
VeraChem MOL file


 22 21  0  0  0  0  0  0  0  0999 V2000     
   18.5666   16.4419   21.4127 C   0  0  0  0  0  0  0  0  0  0  0  0
   18.5587   16.0820   20.2518 O   0  5  0  0  0  0  0  0  0  0  0  0
   17.5585   16.6321   22.0641 O   0  0  0  0  0  0  0  0  0  0  0  0
   19.9173   16.6357   22.0962 C   0  0  0  0  0  0  0  0  0  0  0  0
   20.5102   15.7334   21.9067 H   0  0  0  0  0  0  0  0  0  0  0  0
   19.7598   16.6796   23.1797 H   0  0  0  0  0  0  0  0  0  0  0  0
   20.7061   17.8802   21.6039 C   0  0  0  0  0  0  0  0  0  0  0  0
   21.6833   17.9087   22.1045 H   0  0  0  0  0  0  0  0  0  0  0  0
   20.9136   17.7619   20.5314 H   0  0  0  0  0  0  0  0  0  0  0  0
   19.9815   19.2313   21.8233 C   0  0  0  0  0  0  0  0  0  0  0  0
   19.0177   19.2253   21.2961 H   0  0  0  0  0  0  0  0  0  0  0  0
   20.5853   20.0189   21.3551 H   0  0  0  0  0  0  0  0  0  0  0  0
   19.7546   19.5737   23.3162 C   0  0  0  0  0  0  0  0  0  0  0  0
   19.1292   18.7969   23.7750 H   0  0  0  0  0  0  0  0  0  0  0  0
   20.7139   19.5614   23.8510 H   0  0  0  0  0  0  0  0  0  0  0  0
   19.0572   20.9368   23.5345 C   0  0  0  0  0  0  0  0  0  0  0  0
   18.8053   21.0356   24.5994 H   0  0  0  0  0  0  0  0  0  0  0  0
   18.1043   20.9574   22.9876 H   0  0  0  0  0  0  0  0  0  0  0  0
   19.9241   22.1447   23.1173 C   0  0  0  0  0  0  0  0  0  0  0  0
   20.1019   22.1572   22.0349 H   0  0  0  0  0  0  0  0  0  0  0  0
   20.8965   22.1251   23.6265 H   0  0  0  0  0  0  0  0  0  0  0  0
   19.4235   23.0852   23.3815 H   0  0  0  0  0  0  0  0  0  0  0  0
  1  2  1  0  0  0  0
  1  3  2  0  0  0  0
  1  4  1  0  0  0  0
  4  5  1  0  0  0  0
  4  6  1  0  0  0  0
  4  7  1  0  0  0  0
  7  8  1  0  0  0  0
  7  9  1  0  0  0  0
  7 10  1  0  0  0  0
 10 11  1  0  0  0  0
 10 12  1  0  0  0  0
 10 13  1  0  0  0  0
 13 14  1  0  0  0  0
 13 15  1  0  0  0  0
 13 16  1  0  0  0  0
 16 17  1  0  0  0  0
 16 18  1  0  0  0  0
 16 19  1  0  0  0  0
 19 20  1  0  0  0  0
 19 21  1  0  0  0  0
 19 22  1  0  0  0  0
M  END
> <VConfSearch Rank>
596

> <Conf_Id>
70

> <Delta U+W>
1.803

> <U+W>
-51.356

> <U>
10.428

> <W>
-61.784

> <W(PB)>
-64.014

> <W(SA)>
2.230

> <Valence>
8.445

> <Coulomb>
1.306

> <VdW>
0.676

> <VdW6>
-8.929

> <VdW12>
9.605

> <Bond>
0.209

> <Angle>
3.066

> <Pdih>
5.170

> <Idih>
0.001

> <Tether>
0.000

$$$$
VeraChem MOL file


 22 21  0  0  0  0  0  0  0  0999 V2000     
   19.6133   17.6238   19.3659 C   0  0  0  0  0  0  0  0  0  0  0  0
   19.4103   16.4480   19.5966 O   0  5  0  0  0  0  0  0  0  0  0  0
   20.5672   18.0296   18.7318 O   0  0  0  0  0  0  0  0  0  0  0  0
   18.6024   18.6430   19.8840 C   0  0  0  0  0  0  0  0  0  0  0  0
   17.6014   18.2553   19.6609 H   0  0  0  0  0  0  0  0  0  0  0  0
   18.7175   19.5719   19.3123 H   0  0  0  0  0  0  0  0  0  0  0  0
   18.7200   18.9301   21.4034 C   0  0  0  0  0  0  0  0  0  0  0  0
   17.8799   19.5666   21.7123 H   0  0  0  0  0  0  0  0  0  0  0  0
   18.6211   17.9844   21.9525 H   0  0  0  0  0  0  0  0  0  0  0  0
   20.0515   19.6266   21.7728 C   0  0  0  0  0  0  0  0  0  0  0  0
   20.1704   20.5230   21.1490 H   0  0  0  0  0  0  0  0  0  0  0  0
   20.8970   18.9676   21.5313 H   0  0  0  0  0  0  0  0  0  0  0  0
   20.1348   20.0478   23.2591 C   0  0  0  0  0  0  0  0  0  0  0  0
   21.0499   20.6385   23.4026 H   0  0  0  0  0  0  0  0  0  0  0  0
   19.2947   20.7131   23.5011 H   0  0  0  0  0  0  0  0  0  0  0  0
   20.1512   18.8520   24.2378 C   0  0  0  0  0  0  0  0  0  0  0  0
   20.9589   18.1595   23.9631 H   0  0  0  0  0  0  0  0  0  0  0  0
   19.2101   18.2912   24.1659 H   0  0  0  0  0  0  0  0  0  0  0  0
   20.3482   19.3165   25.6949 C   0  0  0  0  0  0  0  0  0  0  0  0
   21.3009   19.8492   25.8126 H   0  0  0  0  0  0  0  0  0  0  0  0
   20.3545   18.4566   26.3774 H   0  0  0  0  0  0  0  0  0  0  0  0
   19.5382   19.9896   26.0051 H   0  0  0  0  0  0  0  0  0  0  0  0
  1  2  1  0  0  0  0
  1  3  2  0  0  0  0
  1  4  1  0  0  0  0
  4  5  1  0  0  0  0
  4  6  1  0  0  0  0
  4  7  1  0  0  0  0
  7  8  1  0  0  0  0
  7  9  1  0  0  0  0
  7 10  1  0  0  0  0
 10 11  1  0  0  0  0
 10 12  1  0  0  0  0
 10 13  1  0  0  0  0
 13 14  1  0  0  0  0
 13 15  1  0  0  0  0
 13 16  1  0  0  0  0
 16 17  1  0  0  0  0
 16 18  1  0  0  0  0
 16 19  1  0  0  0  0
 19 20  1  0  0  0  0
 19 21  1  0  0  0  0
 19 22  1  0  0  0  0
M  END
> <VConfSearch Rank>
597

> <Conf_Id>
85

> <Delta U+W>
0.707

> <U+W>
-52.452

> <U>
8.925

> <W>
-61.378

> <W(PB)>
-63.661

> <W(SA)>
2.283

> <Valence>
7.881

> <Coulomb>
0.349

> <VdW>
0.695

> <VdW6>
-8.049

> <VdW12>
8.743

> <Bond>
0.156

> <Angle>
2.660

> <Pdih>
5.064

> <Idih>
0.001

> <Tether>
0.000

$$$$
VeraChem MOL file


 22 21  0  0  0  0  0  0  0  0999 V2000     
   17.1017   20.7191   22.0414 C   0  0  0  0  0  0  0  0  0  0  0  0
   16.2479   20.4311   22.8569 O   0  5  0  0  0  0  0  0  0  0  0  0
   17.4336   21.8610   21.7907 O   0  0  0  0  0  0  0  0  0  0  0  0
   17.7787   19.5879   21.2725 C   0  0  0  0  0  0  0  0  0  0  0  0
   17.7929   19.8749   20.2145 H   0  0  0  0  0  0  0  0  0  0  0  0
   17.1551   18.6889   21.3493 H   0  0  0  0  0  0  0  0  0  0  0  0
   19.2239   19.2788   21.7434 C   0  0  0  0  0  0  0  0  0  0  0  0
   19.6738   18.5710   21.0359 H   0  0  0  0  0  0  0  0  0  0  0  0
   19.8245   20.1981   21.7060 H   0  0  0  0  0  0  0  0  0  0  0  0
   19.2700   18.6773   23.1672 C   0  0  0  0  0  0  0  0  0  0  0  0
   18.7392   17.7156   23.1743 H   0  0  0  0  0  0  0  0  0  0  0  0
   18.7212   19.3353   23.8548 H   0  0  0  0  0  0  0  0  0  0  0  0
   20.7006   18.4805   23.7287 C   0  0  0  0  0  0  0  0  0  0  0  0
   21.2086   19.4509   23.8131 H   0  0  0  0  0  0  0  0  0  0  0  0
   20.6026   18.1052   24.7565 H   0  0  0  0  0  0  0  0  0  0  0  0
   21.5786   17.4823   22.9333 C   0  0  0  0  0  0  0  0  0  0  0  0
   20.9476   16.7379   22.4283 H   0  0  0  0  0  0  0  0  0  0  0  0
   22.2034   16.9220   23.6425 H   0  0  0  0  0  0  0  0  0  0  0  0
   22.5141   18.1715   21.9150 C   0  0  0  0  0  0  0  0  0  0  0  0
   21.9531   18.7397   21.1643 H   0  0  0  0  0  0  0  0  0  0  0  0
   23.1215   17.4259   21.3860 H   0  0  0  0  0  0  0  0  0  0  0  0
   23.1989   18.8642   22.4212 H   0  0  0  0  0  0  0  0  0  0  0  0
  1  2  1  0  0  0  0
  1  3  2  0  0  0  0
  1  4  1  0  0  0  0
  4  5  1  0  0  0  0
  4  6  1  0  0  0  0
  4  7  1  0  0  0  0
  7  8  1  0  0  0  0
  7  9  1  0  0  0  0
  7 10  1  0  0  0  0
 10 11  1  0  0  0  0
 10 12  1  0  0  0  0
 10 13  1  0  0  0  0
 13 14  1  0  0  0  0
 13 15  1  0  0  0  0
 13 16  1  0  0  0  0
 16 17  1  0  0  0  0
 16 18  1  0  0  0  0
 16 19  1  0  0  0  0
 19 20  1  0  0  0  0
 19 21  1  0  0  0  0
 19 22  1  0  0  0  0
M  END
> <VConfSearch Rank>
598

> <Conf_Id>
82

> <Delta U+W>
3.438

> <U+W>
-49.721

> <U>
11.773

> <W>
-61.495

> <W(PB)>
-63.749

> <W(SA)>
2.254

> <Valence>
10.419

> <Coulomb>
0.565

> <VdW>
0.789

> <VdW6>
-8.847

> <VdW12>
9.636

> <Bond>
0.200

> <Angle>
3.187

> <Pdih>
7.032

> <Idih>
0.001

> <Tether>
0.000

$$$$
VeraChem MOL file


 22 21  0  0  0  0  0  0  0  0999 V2000     
   18.8886   20.4770   19.6286 C   0  0  0  0  0  0  0  0  0  0  0  0
   17.6900   20.3073   19.5216 O   0  5  0  0  0  0  0  0  0  0  0  0
   19.4311   21.5539   19.4768 O   0  0  0  0  0  0  0  0  0  0  0  0
   19.7610   19.2661   19.9482 C   0  0  0  0  0  0  0  0  0  0  0  0
   20.7975   19.4985   19.6755 H   0  0  0  0  0  0  0  0  0  0  0  0
   19.4366   18.4481   19.2942 H   0  0  0  0  0  0  0  0  0  0  0  0
   19.6869   18.8054   21.4274 C   0  0  0  0  0  0  0  0  0  0  0  0
   18.6386   18.6215   21.7005 H   0  0  0  0  0  0  0  0  0  0  0  0
   20.2160   17.8484   21.5180 H   0  0  0  0  0  0  0  0  0  0  0  0
   20.3128   19.8299   22.4019 C   0  0  0  0  0  0  0  0  0  0  0  0
   19.8575   20.8150   22.2311 H   0  0  0  0  0  0  0  0  0  0  0  0
   21.3817   19.9430   22.1753 H   0  0  0  0  0  0  0  0  0  0  0  0
   20.1385   19.4724   23.8993 C   0  0  0  0  0  0  0  0  0  0  0  0
   20.5693   20.2946   24.4868 H   0  0  0  0  0  0  0  0  0  0  0  0
   19.0712   19.4481   24.1588 H   0  0  0  0  0  0  0  0  0  0  0  0
   20.8273   18.1556   24.3368 C   0  0  0  0  0  0  0  0  0  0  0  0
   21.2270   18.2888   25.3516 H   0  0  0  0  0  0  0  0  0  0  0  0
   21.6928   17.9459   23.6932 H   0  0  0  0  0  0  0  0  0  0  0  0
   19.8684   16.9443   24.3573 C   0  0  0  0  0  0  0  0  0  0  0  0
   19.0382   17.1160   25.0547 H   0  0  0  0  0  0  0  0  0  0  0  0
   20.3988   16.0403   24.6832 H   0  0  0  0  0  0  0  0  0  0  0  0
   19.4422   16.7439   23.3678 H   0  0  0  0  0  0  0  0  0  0  0  0
  1  2  1  0  0  0  0
  1  3  2  0  0  0  0
  1  4  1  0  0  0  0
  4  5  1  0  0  0  0
  4  6  1  0  0  0  0
  4  7  1  0  0  0  0
  7  8  1  0  0  0  0
  7  9  1  0  0  0  0
  7 10  1  0  0  0  0
 10 11  1  0  0  0  0
 10 12  1  0  0  0  0
 10 13  1  0  0  0  0
 13 14  1  0  0  0  0
 13 15  1  0  0  0  0
 13 16  1  0  0  0  0
 16 17  1  0  0  0  0
 16 18  1  0  0  0  0
 16 19  1  0  0  0  0
 19 20  1  0  0  0  0
 19 21  1  0  0  0  0
 19 22  1  0  0  0  0
M  END
> <VConfSearch Rank>
599

> <Conf_Id>
94

> <Delta U+W>
3.471

> <U+W>
-49.688

> <U>
11.773

> <W>
-61.461

> <W(PB)>
-63.710

> <W(SA)>
2.248

> <Valence>
10.419

> <Coulomb>
0.566

> <VdW>
0.789

> <VdW6>
-8.847

> <VdW12>
9.636

> <Bond>
0.200

> <Angle>
3.187

> <Pdih>
7.032

> <Idih>
0.001

> <Tether>
0.000

$$$$
VeraChem MOL file


 22 21  0  0  0  0  0  0  0  0999 V2000     
   22.1974   18.5664   20.1053 C   0  0  0  0  0  0  0  0  0  0  0  0
   22.5919   17.5589   19.5522 O   0  5  0  0  0  0  0  0  0  0  0  0
   22.9001   19.5338   20.3220 O   0  0  0  0  0  0  0  0  0  0  0  0
   20.7462   18.6112   20.5699 C   0  0  0  0  0  0  0  0  0  0  0  0
   20.1447   18.0223   19.8673 H   0  0  0  0  0  0  0  0  0  0  0  0
   20.4051   19.6503   20.4996 H   0  0  0  0  0  0  0  0  0  0  0  0
   20.5611   18.0744   22.0129 C   0  0  0  0  0  0  0  0  0  0  0  0
   20.9866   17.0631   22.0705 H   0  0  0  0  0  0  0  0  0  0  0  0
   21.1441   18.6893   22.7114 H   0  0  0  0  0  0  0  0  0  0  0  0
   19.0804   18.0137   22.4647 C   0  0  0  0  0  0  0  0  0  0  0  0
   19.0338   17.5759   23.4705 H   0  0  0  0  0  0  0  0  0  0  0  0
   18.5390   17.3159   21.8117 H   0  0  0  0  0  0  0  0  0  0  0  0
   18.3333   19.3735   22.4632 C   0  0  0  0  0  0  0  0  0  0  0  0
   18.2364   19.7339   21.4308 H   0  0  0  0  0  0  0  0  0  0  0  0
   17.3065   19.2088   22.8171 H   0  0  0  0  0  0  0  0  0  0  0  0
   18.9846   20.4842   23.3234 C   0  0  0  0  0  0  0  0  0  0  0  0
   18.3866   21.4004   23.2237 H   0  0  0  0  0  0  0  0  0  0  0  0
   19.9818   20.7285   22.9337 H   0  0  0  0  0  0  0  0  0  0  0  0
   19.0851   20.1168   24.8196 C   0  0  0  0  0  0  0  0  0  0  0  0
   18.1002   19.8529   25.2262 H   0  0  0  0  0  0  0  0  0  0  0  0
   19.4744   20.9645   25.3982 H   0  0  0  0  0  0  0  0  0  0  0  0
   19.7618   19.2675   24.9768 H   0  0  0  0  0  0  0  0  0  0  0  0
  1  2  1  0  0  0  0
  1  3  2  0  0  0  0
  1  4  1  0  0  0  0
  4  5  1  0  0  0  0
  4  6  1  0  0  0  0
  4  7  1  0  0  0  0
  7  8  1  0  0  0  0
  7  9  1  0  0  0  0
  7 10  1  0  0  0  0
 10 11  1  0  0  0  0
 10 12  1  0  0  0  0
 10 13  1  0  0  0  0
 13 14  1  0  0  0  0
 13 15  1  0  0  0  0
 13 16  1  0  0  0  0
 16 17  1  0  0  0  0
 16 18  1  0  0  0  0
 16 19  1  0  0  0  0
 19 20  1  0  0  0  0
 19 21  1  0  0  0  0
 19 22  1  0  0  0  0
M  END
> <VConfSearch Rank>
600

> <Conf_Id>
56

> <Delta U+W>
0.853

> <U+W>
-52.307

> <U>
8.874

> <W>
-61.181

> <W(PB)>
-63.413

> <W(SA)>
2.232

> <Valence>
8.479

> <Coulomb>
-0.357

> <VdW>
0.753

> <VdW6>
-9.081

> <VdW12>
9.833

> <Bond>
0.221

> <Angle>
3.208

> <Pdih>
5.050

> <Idih>
0.000

> <Tether>
0.000

$$$$
VeraChem MOL file


 22 21  0  0  0  0  0  0  0  0999 V2000     
   21.1367   15.8462   19.9019 C   0  0  0  0  0  0  0  0  0  0  0  0
   20.7829   15.0182   20.7191 O   0  5  0  0  0  0  0  0  0  0  0  0
   21.6751   15.5547   18.8526 O   0  0  0  0  0  0  0  0  0  0  0  0
   20.9071   17.3327   20.1794 C   0  0  0  0  0  0  0  0  0  0  0  0
   20.3075   17.7309   19.3524 H   0  0  0  0  0  0  0  0  0  0  0  0
   21.8841   17.8283   20.1351 H   0  0  0  0  0  0  0  0  0  0  0  0
   20.2161   17.6555   21.5310 C   0  0  0  0  0  0  0  0  0  0  0  0
   19.2408   17.1510   21.5713 H   0  0  0  0  0  0  0  0  0  0  0  0
   20.8188   17.2486   22.3548 H   0  0  0  0  0  0  0  0  0  0  0  0
   20.0237   19.1748   21.7292 C   0  0  0  0  0  0  0  0  0  0  0  0
   19.4210   19.5793   20.9044 H   0  0  0  0  0  0  0  0  0  0  0  0
   21.0001   19.6770   21.6883 H   0  0  0  0  0  0  0  0  0  0  0  0
   19.3363   19.4936   23.0742 C   0  0  0  0  0  0  0  0  0  0  0  0
   18.3599   18.9916   23.1156 H   0  0  0  0  0  0  0  0  0  0  0  0
   19.9388   19.0893   23.8993 H   0  0  0  0  0  0  0  0  0  0  0  0
   19.1437   21.0117   23.2729 C   0  0  0  0  0  0  0  0  0  0  0  0
   18.5397   21.4193   22.4504 H   0  0  0  0  0  0  0  0  0  0  0  0
   20.1186   21.5171   23.2341 H   0  0  0  0  0  0  0  0  0  0  0  0
   18.4570   21.3259   24.6172 C   0  0  0  0  0  0  0  0  0  0  0  0
   17.4652   20.8580   24.6704 H   0  0  0  0  0  0  0  0  0  0  0  0
   18.3280   22.4089   24.7419 H   0  0  0  0  0  0  0  0  0  0  0  0
   19.0560   20.9566   25.4600 H   0  0  0  0  0  0  0  0  0  0  0  0
  1  2  1  0  0  0  0
  1  3  2  0  0  0  0
  1  4  1  0  0  0  0
  4  5  1  0  0  0  0
  4  6  1  0  0  0  0
  4  7  1  0  0  0  0
  7  8  1  0  0  0  0
  7  9  1  0  0  0  0
  7 10  1  0  0  0  0
 10 11  1  0  0  0  0
 10 12  1  0  0  0  0
 10 13  1  0  0  0  0
 13 14  1  0  0  0  0
 13 15  1  0  0  0  0
 13 16  1  0  0  0  0
 16 17  1  0  0  0  0
 16 18  1  0  0  0  0
 16 19  1  0  0  0  0
 19 20  1  0  0  0  0
 19 21  1  0  0  0  0
 19 22  1  0  0  0  0
M  END
> <VConfSearch Rank>
601

> <Conf_Id>
0

> <Delta U+W>
0.000

> <U+W>
-53.159

> <U>
6.763

> <W>
-59.922

> <W(PB)>
-62.256

> <W(SA)>
2.334

> <Valence>
7.600

> <Coulomb>
-2.139

> <VdW>
1.302

> <VdW6>
-6.786

> <VdW12>
8.088

> <Bond>
0.134

> <Angle>
2.720

> <Pdih>
4.746

> <Idih>
0.000

> <Tether>
0.000

$$$$
VeraChem MOL file


 22 21  0  0  0  0  0  0  0  0999 V2000     
   21.4005   18.4967   25.8262 C   0  0  0  0  0  0  0  0  0  0  0  0
   22.1477   17.5435   25.9231 O   0  5  0  0  0  0  0  0  0  0  0  0
   20.7017   18.8993   26.7350 O   0  0  0  0  0  0  0  0  0  0  0  0
   21.3186   19.2136   24.4831 C   0  0  0  0  0  0  0  0  0  0  0  0
   22.3041   19.1559   24.0055 H   0  0  0  0  0  0  0  0  0  0  0  0
   21.1127   20.2735   24.6747 H   0  0  0  0  0  0  0  0  0  0  0  0
   20.2362   18.6191   23.5488 C   0  0  0  0  0  0  0  0  0  0  0  0
   20.4495   17.5548   23.3775 H   0  0  0  0  0  0  0  0  0  0  0  0
   19.2580   18.6723   24.0467 H   0  0  0  0  0  0  0  0  0  0  0  0
   20.1733   19.3616   22.1966 C   0  0  0  0  0  0  0  0  0  0  0  0
   21.1529   19.3075   21.7021 H   0  0  0  0  0  0  0  0  0  0  0  0
   19.9612   20.4254   22.3714 H   0  0  0  0  0  0  0  0  0  0  0  0
   19.0934   18.7668   21.2673 C   0  0  0  0  0  0  0  0  0  0  0  0
   19.3051   17.7030   21.0922 H   0  0  0  0  0  0  0  0  0  0  0  0
   18.1136   18.8207   21.7614 H   0  0  0  0  0  0  0  0  0  0  0  0
   19.0299   19.5084   19.9156 C   0  0  0  0  0  0  0  0  0  0  0  0
   20.0078   19.4550   19.4173 H   0  0  0  0  0  0  0  0  0  0  0  0
   18.8163   20.5727   20.0865 H   0  0  0  0  0  0  0  0  0  0  0  0
   17.9504   18.9115   18.9905 C   0  0  0  0  0  0  0  0  0  0  0  0
   16.9563   18.9807   19.4513 H   0  0  0  0  0  0  0  0  0  0  0  0
   18.1567   17.8545   18.7772 H   0  0  0  0  0  0  0  0  0  0  0  0
   17.9191   19.4503   18.0346 H   0  0  0  0  0  0  0  0  0  0  0  0
  1  2  1  0  0  0  0
  1  3  2  0  0  0  0
  1  4  1  0  0  0  0
  4  5  1  0  0  0  0
  4  6  1  0  0  0  0
  4  7  1  0  0  0  0
  7  8  1  0  0  0  0
  7  9  1  0  0  0  0
  7 10  1  0  0  0  0
 10 11  1  0  0  0  0
 10 12  1  0  0  0  0
 10 13  1  0  0  0  0
 13 14  1  0  0  0  0
 13 15  1  0  0  0  0
 13 16  1  0  0  0  0
 16 17  1  0  0  0  0
 16 18  1  0  0  0  0
 16 19  1  0  0  0  0
 19 20  1  0  0  0  0
 19 21  1  0  0  0  0
 19 22  1  0  0  0  0
M  END
> <VConfSearch Rank>
602

> <Conf_Id>
10

> <Delta U+W>
-1.291

> <U+W>
-54.451

> <U>
5.779

> <W>
-60.230

> <W(PB)>
-62.557

> <W(SA)>
2.328

> <Valence>
7.101

> <Coulomb>
-2.079

> <VdW>
0.757

> <VdW6>
-6.496

> <VdW12>
7.253

> <Bond>
0.100

> <Angle>
2.262

> <Pdih>
4.738

> <Idih>
0.001

> <Tether>
0.000

$$$$
VeraChem MOL file


 22 21  0  0  0  0  0  0  0  0999 V2000     
   21.5241   21.4731   24.6661 C   0  0  0  0  0  0  0  0  0  0  0  0
   20.7990   21.7617   25.5974 O   0  5  0  0  0  0  0  0  0  0  0  0
   22.7373   21.5150   24.7195 O   0  0  0  0  0  0  0  0  0  0  0  0
   20.8762   21.0128   23.3650 C   0  0  0  0  0  0  0  0  0  0  0  0
   21.5156   21.3337   22.5338 H   0  0  0  0  0  0  0  0  0  0  0  0
   19.9183   21.5358   23.2577 H   0  0  0  0  0  0  0  0  0  0  0  0
   20.6578   19.4807   23.3106 C   0  0  0  0  0  0  0  0  0  0  0  0
   21.6242   18.9721   23.4329 H   0  0  0  0  0  0  0  0  0  0  0  0
   20.0264   19.1738   24.1561 H   0  0  0  0  0  0  0  0  0  0  0  0
   20.0010   19.0404   21.9844 C   0  0  0  0  0  0  0  0  0  0  0  0
   20.6352   19.3465   21.1413 H   0  0  0  0  0  0  0  0  0  0  0  0
   19.0404   19.5593   21.8689 H   0  0  0  0  0  0  0  0  0  0  0  0
   19.7817   17.5107   21.9366 C   0  0  0  0  0  0  0  0  0  0  0  0
   20.7395   17.0063   22.1240 H   0  0  0  0  0  0  0  0  0  0  0  0
   19.1065   17.2079   22.7486 H   0  0  0  0  0  0  0  0  0  0  0  0
   19.2206   17.0120   20.5846 C   0  0  0  0  0  0  0  0  0  0  0  0
   19.2066   15.9134   20.5926 H   0  0  0  0  0  0  0  0  0  0  0  0
   19.8967   17.3076   19.7704 H   0  0  0  0  0  0  0  0  0  0  0  0
   17.7948   17.5249   20.2878 C   0  0  0  0  0  0  0  0  0  0  0  0
   17.4090   17.0735   19.3646 H   0  0  0  0  0  0  0  0  0  0  0  0
   17.7800   18.6139   20.1560 H   0  0  0  0  0  0  0  0  0  0  0  0
   17.1067   17.2667   21.1033 H   0  0  0  0  0  0  0  0  0  0  0  0
  1  2  1  0  0  0  0
  1  3  2  0  0  0  0
  1  4  1  0  0  0  0
  4  5  1  0  0  0  0
  4  6  1  0  0  0  0
  4  7  1  0  0  0  0
  7  8  1  0  0  0  0
  7  9  1  0  0  0  0
  7 10  1  0  0  0  0
 10 11  1  0  0  0  0
 10 12  1  0  0  0  0
 10 13  1  0  0  0  0
 13 14  1  0  0  0  0
 13 15  1  0  0  0  0
 13 16  1  0  0  0  0
 16 17  1  0  0  0  0
 16 18  1  0  0  0  0
 16 19  1  0  0  0  0
 19 20  1  0  0  0  0
 19 21  1  0  0  0  0
 19 22  1  0  0  0  0
M  END
> <VConfSearch Rank>
603

> <Conf_Id>
37

> <Delta U+W>
-0.345

> <U+W>
-53.504

> <U>
6.751

> <W>
-60.255

> <W(PB)>
-62.592

> <W(SA)>
2.336

> <Valence>
7.602

> <Coulomb>
-1.744

> <VdW>
0.894

> <VdW6>
-7.110

> <VdW12>
8.004

> <Bond>
0.131

> <Angle>
2.489

> <Pdih>
4.982

> <Idih>
0.001

> <Tether>
0.000

$$$$
VeraChem MOL file


 22 21  0  0  0  0  0  0  0  0999 V2000     
   19.1843   22.8325   22.4989 C   0  0  0  0  0  0  0  0  0  0  0  0
   20.2175   23.4711   22.5349 O   0  5  0  0  0  0  0  0  0  0  0  0
   18.1418   23.2105   22.9956 O   0  0  0  0  0  0  0  0  0  0  0  0
   19.2024   21.4720   21.8111 C   0  0  0  0  0  0  0  0  0  0  0  0
   19.9253   21.5162   20.9876 H   0  0  0  0  0  0  0  0  0  0  0  0
   18.2145   21.3017   21.3666 H   0  0  0  0  0  0  0  0  0  0  0  0
   19.5612   20.3148   22.7756 C   0  0  0  0  0  0  0  0  0  0  0  0
   20.5470   20.5063   23.2216 H   0  0  0  0  0  0  0  0  0  0  0  0
   18.8362   20.2930   23.6012 H   0  0  0  0  0  0  0  0  0  0  0  0
   19.5726   18.9489   22.0556 C   0  0  0  0  0  0  0  0  0  0  0  0
   20.2942   18.9840   21.2290 H   0  0  0  0  0  0  0  0  0  0  0  0
   18.5853   18.7591   21.6128 H   0  0  0  0  0  0  0  0  0  0  0  0
   19.9350   17.7976   23.0218 C   0  0  0  0  0  0  0  0  0  0  0  0
   20.9432   17.9583   23.4275 H   0  0  0  0  0  0  0  0  0  0  0  0
   19.2476   17.8202   23.8785 H   0  0  0  0  0  0  0  0  0  0  0  0
   19.8579   16.3986   22.3675 C   0  0  0  0  0  0  0  0  0  0  0  0
   18.8487   16.2317   21.9661 H   0  0  0  0  0  0  0  0  0  0  0  0
   20.0124   15.6372   23.1444 H   0  0  0  0  0  0  0  0  0  0  0  0
   20.9027   16.1877   21.2503 C   0  0  0  0  0  0  0  0  0  0  0  0
   21.9182   16.3786   21.6210 H   0  0  0  0  0  0  0  0  0  0  0  0
   20.7167   16.8518   20.3971 H   0  0  0  0  0  0  0  0  0  0  0  0
   20.8664   15.1546   20.8811 H   0  0  0  0  0  0  0  0  0  0  0  0
  1  2  1  0  0  0  0
  1  3  2  0  0  0  0
  1  4  1  0  0  0  0
  4  5  1  0  0  0  0
  4  6  1  0  0  0  0
  4  7  1  0  0  0  0
  7  8  1  0  0  0  0
  7  9  1  0  0  0  0
  7 10  1  0  0  0  0
 10 11  1  0  0  0  0
 10 12  1  0  0  0  0
 10 13  1  0  0  0  0
 13 14  1  0  0  0  0
 13 15  1  0  0  0  0
 13 16  1  0  0  0  0
 16 17  1  0  0  0  0
 16 18  1  0  0  0  0
 16 19  1  0  0  0  0
 19 20  1  0  0  0  0
 19 21  1  0  0  0  0
 19 22  1  0  0  0  0
M  END
> <VConfSearch Rank>
604

> <Conf_Id>
38

> <Delta U+W>
-0.439

> <U+W>
-53.598

> <U>
6.751

> <W>
-60.350

> <W(PB)>
-62.659

> <W(SA)>
2.309

> <Valence>
7.602

> <Coulomb>
-1.744

> <VdW>
0.893

> <VdW6>
-7.110

> <VdW12>
8.004

> <Bond>
0.131

> <Angle>
2.489

> <Pdih>
4.981

> <Idih>
0.001

> <Tether>
0.000

$$$$
VeraChem MOL file


 22 21  0  0  0  0  0  0  0  0999 V2000     
   23.0004   18.0868   24.1114 C   0  0  0  0  0  0  0  0  0  0  0  0
   23.5695   17.0204   23.9869 O   0  5  0  0  0  0  0  0  0  0  0  0
   23.1363   18.8133   25.0759 O   0  0  0  0  0  0  0  0  0  0  0  0
   22.0461   18.5267   23.0068 C   0  0  0  0  0  0  0  0  0  0  0  0
   22.4243   18.1354   22.0549 H   0  0  0  0  0  0  0  0  0  0  0  0
   22.0866   19.6201   22.9486 H   0  0  0  0  0  0  0  0  0  0  0  0
   20.5914   18.0436   23.2438 C   0  0  0  0  0  0  0  0  0  0  0  0
   20.6034   16.9552   23.3944 H   0  0  0  0  0  0  0  0  0  0  0  0
   20.2059   18.4808   24.1752 H   0  0  0  0  0  0  0  0  0  0  0  0
   19.6306   18.3700   22.0755 C   0  0  0  0  0  0  0  0  0  0  0  0
   18.6745   17.8683   22.2722 H   0  0  0  0  0  0  0  0  0  0  0  0
   20.0232   17.9386   21.1447 H   0  0  0  0  0  0  0  0  0  0  0  0
   19.3855   19.8872   21.8860 C   0  0  0  0  0  0  0  0  0  0  0  0
   18.9946   20.3188   22.8175 H   0  0  0  0  0  0  0  0  0  0  0  0
   20.3403   20.3897   21.6862 H   0  0  0  0  0  0  0  0  0  0  0  0
   18.4216   20.2127   20.7211 C   0  0  0  0  0  0  0  0  0  0  0  0
   18.8033   19.7729   19.7893 H   0  0  0  0  0  0  0  0  0  0  0  0
   18.4103   21.3007   20.5682 H   0  0  0  0  0  0  0  0  0  0  0  0
   16.9748   19.7332   20.9685 C   0  0  0  0  0  0  0  0  0  0  0  0
   16.9153   18.6385   21.0068 H   0  0  0  0  0  0  0  0  0  0  0  0
   16.3148   20.0726   20.1597 H   0  0  0  0  0  0  0  0  0  0  0  0
   16.5843   20.1333   21.9133 H   0  0  0  0  0  0  0  0  0  0  0  0
  1  2  1  0  0  0  0
  1  3  2  0  0  0  0
  1  4  1  0  0  0  0
  4  5  1  0  0  0  0
  4  6  1  0  0  0  0
  4  7  1  0  0  0  0
  7  8  1  0  0  0  0
  7  9  1  0  0  0  0
  7 10  1  0  0  0  0
 10 11  1  0  0  0  0
 10 12  1  0  0  0  0
 10 13  1  0  0  0  0
 13 14  1  0  0  0  0
 13 15  1  0  0  0  0
 13 16  1  0  0  0  0
 16 17  1  0  0  0  0
 16 18  1  0  0  0  0
 16 19  1  0  0  0  0
 19 20  1  0  0  0  0
 19 21  1  0  0  0  0
 19 22  1  0  0  0  0
M  END
> <VConfSearch Rank>
605

> <Conf_Id>
60

> <Delta U+W>
0.386

> <U+W>
-52.773

> <U>
7.689

> <W>
-60.463

> <W(PB)>
-62.772

> <W(SA)>
2.309

> <Valence>
8.197

> <Coulomb>
-1.561

> <VdW>
1.053

> <VdW6>
-7.737

> <VdW12>
8.790

> <Bond>
0.181

> <Angle>
2.780

> <Pdih>
5.235

> <Idih>
0.001

> <Tether>
0.000

$$$$
VeraChem MOL file


 22 21  0  0  0  0  0  0  0  0999 V2000     
   17.1944   19.0876   24.9024 C   0  0  0  0  0  0  0  0  0  0  0  0
   17.5669   19.7919   25.8198 O   0  5  0  0  0  0  0  0  0  0  0  0
   16.2881   18.2836   24.9967 O   0  0  0  0  0  0  0  0  0  0  0  0
   17.9188   19.2026   23.5659 C   0  0  0  0  0  0  0  0  0  0  0  0
   18.2349   20.2449   23.4478 H   0  0  0  0  0  0  0  0  0  0  0  0
   17.1970   18.9885   22.7686 H   0  0  0  0  0  0  0  0  0  0  0  0
   19.1343   18.2452   23.4585 C   0  0  0  0  0  0  0  0  0  0  0  0
   19.8728   18.5005   24.2310 H   0  0  0  0  0  0  0  0  0  0  0  0
   18.7964   17.2230   23.6788 H   0  0  0  0  0  0  0  0  0  0  0  0
   19.8097   18.2528   22.0662 C   0  0  0  0  0  0  0  0  0  0  0  0
   19.0670   18.0053   21.2956 H   0  0  0  0  0  0  0  0  0  0  0  0
   20.5574   17.4497   22.0474 H   0  0  0  0  0  0  0  0  0  0  0  0
   20.4925   19.5991   21.7209 C   0  0  0  0  0  0  0  0  0  0  0  0
   19.7453   20.4026   21.7362 H   0  0  0  0  0  0  0  0  0  0  0  0
   21.2338   19.8474   22.4926 H   0  0  0  0  0  0  0  0  0  0  0  0
   21.1712   19.6047   20.3311 C   0  0  0  0  0  0  0  0  0  0  0  0
   21.5076   20.6268   20.1087 H   0  0  0  0  0  0  0  0  0  0  0  0
   20.4354   19.3454   19.5574 H   0  0  0  0  0  0  0  0  0  0  0  0
   22.3839   18.6534   20.2359 C   0  0  0  0  0  0  0  0  0  0  0  0
   23.1177   18.8721   21.0225 H   0  0  0  0  0  0  0  0  0  0  0  0
   22.8849   18.7670   19.2658 H   0  0  0  0  0  0  0  0  0  0  0  0
   22.0795   17.6037   20.3303 H   0  0  0  0  0  0  0  0  0  0  0  0
  1  2  1  0  0  0  0
  1  3  2  0  0  0  0
  1  4  1  0  0  0  0
  4  5  1  0  0  0  0
  4  6  1  0  0  0  0
  4  7  1  0  0  0  0
  7  8  1  0  0  0  0
  7  9  1  0  0  0  0
  7 10  1  0  0  0  0
 10 11  1  0  0  0  0
 10 12  1  0  0  0  0
 10 13  1  0  0  0  0
 13 14  1  0  0  0  0
 13 15  1  0  0  0  0
 13 16  1  0  0  0  0
 16 17  1  0  0  0  0
 16 18  1  0  0  0  0
 16 19  1  0  0  0  0
 19 20  1  0  0  0  0
 19 21  1  0  0  0  0
 19 22  1  0  0  0  0
M  END
> <VConfSearch Rank>
606

> <Conf_Id>
28

> <Delta U+W>
0.351

> <U+W>
-52.808

> <U>
7.689

> <W>
-60.498

> <W(PB)>
-62.768

> <W(SA)>
2.270

> <Valence>
8.197

> <Coulomb>
-1.561

> <VdW>
1.053

> <VdW6>
-7.737

> <VdW12>
8.791

> <Bond>
0.181

> <Angle>
2.780

> <Pdih>
5.235

> <Idih>
0.001

> <Tether>
0.000

$$$$
VeraChem MOL file


 22 21  0  0  0  0  0  0  0  0999 V2000     
   21.3043   22.3052   22.8716 C   0  0  0  0  0  0  0  0  0  0  0  0
   22.4838   22.3753   23.1552 O   0  5  0  0  0  0  0  0  0  0  0  0
   20.7498   23.0683   22.1056 O   0  0  0  0  0  0  0  0  0  0  0  0
   20.4791   21.1857   23.4959 C   0  0  0  0  0  0  0  0  0  0  0  0
   19.4538   21.5515   23.6287 H   0  0  0  0  0  0  0  0  0  0  0  0
   20.8826   20.9817   24.4950 H   0  0  0  0  0  0  0  0  0  0  0  0
   20.4784   19.8921   22.6445 C   0  0  0  0  0  0  0  0  0  0  0  0
   20.0898   20.1260   21.6447 H   0  0  0  0  0  0  0  0  0  0  0  0
   21.5122   19.5438   22.5133 H   0  0  0  0  0  0  0  0  0  0  0  0
   19.6308   18.7761   23.2981 C   0  0  0  0  0  0  0  0  0  0  0  0
   18.5858   19.1046   23.3811 H   0  0  0  0  0  0  0  0  0  0  0  0
   19.9874   18.6117   24.3242 H   0  0  0  0  0  0  0  0  0  0  0  0
   19.6916   17.4304   22.5372 C   0  0  0  0  0  0  0  0  0  0  0  0
   20.7362   17.0995   22.4575 H   0  0  0  0  0  0  0  0  0  0  0  0
   19.1697   16.6696   23.1335 H   0  0  0  0  0  0  0  0  0  0  0  0
   19.0547   17.4883   21.1303 C   0  0  0  0  0  0  0  0  0  0  0  0
   19.6108   18.1869   20.4915 H   0  0  0  0  0  0  0  0  0  0  0  0
   18.0269   17.8694   21.2041 H   0  0  0  0  0  0  0  0  0  0  0  0
   19.0390   16.1000   20.4594 C   0  0  0  0  0  0  0  0  0  0  0  0
   18.4572   15.3828   21.0531 H   0  0  0  0  0  0  0  0  0  0  0  0
   20.0579   15.7065   20.3480 H   0  0  0  0  0  0  0  0  0  0  0  0
   18.5870   16.1582   19.4607 H   0  0  0  0  0  0  0  0  0  0  0  0
  1  2  1  0  0  0  0
  1  3  2  0  0  0  0
  1  4  1  0  0  0  0
  4  5  1  0  0  0  0
  4  6  1  0  0  0  0
  4  7  1  0  0  0  0
  7  8  1  0  0  0  0
  7  9  1  0  0  0  0
  7 10  1  0  0  0  0
 10 11  1  0  0  0  0
 10 12  1  0  0  0  0
 10 13  1  0  0  0  0
 13 14  1  0  0  0  0
 13 15  1  0  0  0  0
 13 16  1  0  0  0  0
 16 17  1  0  0  0  0
 16 18  1  0  0  0  0
 16 19  1  0  0  0  0
 19 20  1  0  0  0  0
 19 21  1  0  0  0  0
 19 22  1  0  0  0  0
M  END
> <VConfSearch Rank>
607

> <Conf_Id>
50

> <Delta U+W>
-0.486

> <U+W>
-53.646

> <U>
7.026

> <W>
-60.672

> <W(PB)>
-62.964

> <W(SA)>
2.292

> <Valence>
7.637

> <Coulomb>
-1.488

> <VdW>
0.877

> <VdW6>
-7.165

> <VdW12>
8.043

> <Bond>
0.134

> <Angle>
2.513

> <Pdih>
4.990

> <Idih>
0.001

> <Tether>
0.000

$$$$
VeraChem MOL file


 22 21  0  0  0  0  0  0  0  0999 V2000     
   22.5504   16.5797   21.9104 C   0  0  0  0  0  0  0  0  0  0  0  0
   22.8011   15.8880   22.8774 O   0  5  0  0  0  0  0  0  0  0  0  0
   23.4014   17.0986   21.2153 O   0  0  0  0  0  0  0  0  0  0  0  0
   21.0869   16.8270   21.5620 C   0  0  0  0  0  0  0  0  0  0  0  0
   20.5147   15.9345   21.8421 H   0  0  0  0  0  0  0  0  0  0  0  0
   21.0091   16.9338   20.4733 H   0  0  0  0  0  0  0  0  0  0  0  0
   20.5046   18.0785   22.2641 C   0  0  0  0  0  0  0  0  0  0  0  0
   20.5981   17.9601   23.3525 H   0  0  0  0  0  0  0  0  0  0  0  0
   21.1053   18.9538   21.9842 H   0  0  0  0  0  0  0  0  0  0  0  0
   19.0219   18.3079   21.8898 C   0  0  0  0  0  0  0  0  0  0  0  0
   18.4534   17.3932   22.1069 H   0  0  0  0  0  0  0  0  0  0  0  0
   18.9347   18.4787   20.8080 H   0  0  0  0  0  0  0  0  0  0  0  0
   18.3681   19.4836   22.6539 C   0  0  0  0  0  0  0  0  0  0  0  0
   17.2941   19.4941   22.4232 H   0  0  0  0  0  0  0  0  0  0  0  0
   18.4516   19.3113   23.7357 H   0  0  0  0  0  0  0  0  0  0  0  0
   18.9707   20.8614   22.2978 C   0  0  0  0  0  0  0  0  0  0  0  0
   18.9353   21.0115   21.2099 H   0  0  0  0  0  0  0  0  0  0  0  0
   20.0275   20.9000   22.5927 H   0  0  0  0  0  0  0  0  0  0  0  0
   18.2130   22.0077   22.9976 C   0  0  0  0  0  0  0  0  0  0  0  0
   18.2557   21.8973   24.0891 H   0  0  0  0  0  0  0  0  0  0  0  0
   17.1577   22.0237   22.6955 H   0  0  0  0  0  0  0  0  0  0  0  0
   18.6545   22.9785   22.7376 H   0  0  0  0  0  0  0  0  0  0  0  0
  1  2  1  0  0  0  0
  1  3  2  0  0  0  0
  1  4  1  0  0  0  0
  4  5  1  0  0  0  0
  4  6  1  0  0  0  0
  4  7  1  0  0  0  0
  7  8  1  0  0  0  0
  7  9  1  0  0  0  0
  7 10  1  0  0  0  0
 10 11  1  0  0  0  0
 10 12  1  0  0  0  0
 10 13  1  0  0  0  0
 13 14  1  0  0  0  0
 13 15  1  0  0  0  0
 13 16  1  0  0  0  0
 16 17  1  0  0  0  0
 16 18  1  0  0  0  0
 16 19  1  0  0  0  0
 19 20  1  0  0  0  0
 19 21  1  0  0  0  0
 19 22  1  0  0  0  0
M  END
> <VConfSearch Rank>
608

> <Conf_Id>
51

> <Delta U+W>
-0.517

> <U+W>
-53.677

> <U>
7.026

> <W>
-60.703

> <W(PB)>
-63.007

> <W(SA)>
2.304

> <Valence>
7.638

> <Coulomb>
-1.488

> <VdW>
0.877

> <VdW6>
-7.165

> <VdW12>
8.042

> <Bond>
0.134

> <Angle>
2.513

> <Pdih>
4.990

> <Idih>
0.001

> <Tether>
0.000

$$$$
VeraChem MOL file


 22 21  0  0  0  0  0  0  0  0999 V2000     
   21.5448   16.1841   23.8918 C   0  0  0  0  0  0  0  0  0  0  0  0
   22.7476   16.3262   23.9907 O   0  5  0  0  0  0  0  0  0  0  0  0
   20.8012   16.0643   24.8455 O   0  0  0  0  0  0  0  0  0  0  0  0
   20.9394   16.1346   22.4917 C   0  0  0  0  0  0  0  0  0  0  0  0
   19.9478   15.6701   22.5551 H   0  0  0  0  0  0  0  0  0  0  0  0
   21.5646   15.4667   21.8875 H   0  0  0  0  0  0  0  0  0  0  0  0
   20.8393   17.5182   21.7985 C   0  0  0  0  0  0  0  0  0  0  0  0
   21.8347   17.9828   21.7678 H   0  0  0  0  0  0  0  0  0  0  0  0
   20.5260   17.3726   20.7558 H   0  0  0  0  0  0  0  0  0  0  0  0
   19.8415   18.4648   22.5027 C   0  0  0  0  0  0  0  0  0  0  0  0
   20.1577   18.6291   23.5421 H   0  0  0  0  0  0  0  0  0  0  0  0
   18.8513   17.9905   22.5425 H   0  0  0  0  0  0  0  0  0  0  0  0
   19.7342   19.8239   21.7783 C   0  0  0  0  0  0  0  0  0  0  0  0
   20.7248   20.2977   21.7389 H   0  0  0  0  0  0  0  0  0  0  0  0
   19.4153   19.6625   20.7394 H   0  0  0  0  0  0  0  0  0  0  0  0
   18.7385   20.7701   22.4814 C   0  0  0  0  0  0  0  0  0  0  0  0
   19.0554   20.9354   23.5205 H   0  0  0  0  0  0  0  0  0  0  0  0
   17.7460   20.3002   22.5212 H   0  0  0  0  0  0  0  0  0  0  0  0
   18.6346   22.1265   21.7556 C   0  0  0  0  0  0  0  0  0  0  0  0
   19.6081   22.6333   21.7290 H   0  0  0  0  0  0  0  0  0  0  0  0
   17.9229   22.7863   22.2687 H   0  0  0  0  0  0  0  0  0  0  0  0
   18.2889   21.9934   20.7220 H   0  0  0  0  0  0  0  0  0  0  0  0
  1  2  1  0  0  0  0
  1  3  2  0  0  0  0
  1  4  1  0  0  0  0
  4  5  1  0  0  0  0
  4  6  1  0  0  0  0
  4  7  1  0  0  0  0
  7  8  1  0  0  0  0
  7  9  1  0  0  0  0
  7 10  1  0  0  0  0
 10 11  1  0  0  0  0
 10 12  1  0  0  0  0
 10 13  1  0  0  0  0
 13 14  1  0  0  0  0
 13 15  1  0  0  0  0
 13 16  1  0  0  0  0
 16 17  1  0  0  0  0
 16 18  1  0  0  0  0
 16 19  1  0  0  0  0
 19 20  1  0  0  0  0
 19 21  1  0  0  0  0
 19 22  1  0  0  0  0
M  END
> <VConfSearch Rank>
609

> <Conf_Id>
43

> <Delta U+W>
-0.129

> <U+W>
-53.289

> <U>
7.937

> <W>
-61.225

> <W(PB)>
-63.523

> <W(SA)>
2.297

> <Valence>
7.358

> <Coulomb>
-0.022

> <VdW>
0.601

> <VdW6>
-7.363

> <VdW12>
7.964

> <Bond>
0.121

> <Angle>
2.425

> <Pdih>
4.811

> <Idih>
0.000

> <Tether>
0.000

$$$$
VeraChem MOL file


 22 21  0  0  0  0  0  0  0  0999 V2000     
   20.8200   21.5624   20.2048 C   0  0  0  0  0  0  0  0  0  0  0  0
   20.1927   22.5984   20.3056 O   0  5  0  0  0  0  0  0  0  0  0  0
   20.8750   20.9065   19.1833 O   0  0  0  0  0  0  0  0  0  0  0  0
   21.5951   21.0698   21.4236 C   0  0  0  0  0  0  0  0  0  0  0  0
   22.1311   21.9303   21.8411 H   0  0  0  0  0  0  0  0  0  0  0  0
   22.3557   20.3539   21.0891 H   0  0  0  0  0  0  0  0  0  0  0  0
   20.7050   20.4316   22.5215 C   0  0  0  0  0  0  0  0  0  0  0  0
   21.3207   20.2347   23.4096 H   0  0  0  0  0  0  0  0  0  0  0  0
   19.9313   21.1502   22.8260 H   0  0  0  0  0  0  0  0  0  0  0  0
   20.0429   19.1145   22.0585 C   0  0  0  0  0  0  0  0  0  0  0  0
   20.8197   18.4045   21.7429 H   0  0  0  0  0  0  0  0  0  0  0  0
   19.4113   19.3066   21.1801 H   0  0  0  0  0  0  0  0  0  0  0  0
   19.1875   18.4807   23.1766 C   0  0  0  0  0  0  0  0  0  0  0  0
   19.8175   18.2850   24.0552 H   0  0  0  0  0  0  0  0  0  0  0  0
   18.4110   19.1913   23.4916 H   0  0  0  0  0  0  0  0  0  0  0  0
   18.5253   17.1657   22.7147 C   0  0  0  0  0  0  0  0  0  0  0  0
   19.2992   16.4518   22.4003 H   0  0  0  0  0  0  0  0  0  0  0  0
   17.8928   17.3579   21.8369 H   0  0  0  0  0  0  0  0  0  0  0  0
   17.6714   16.5361   23.8336 C   0  0  0  0  0  0  0  0  0  0  0  0
   18.2859   16.3043   24.7133 H   0  0  0  0  0  0  0  0  0  0  0  0
   17.2084   15.6027   23.4880 H   0  0  0  0  0  0  0  0  0  0  0  0
   16.8689   17.2173   24.1457 H   0  0  0  0  0  0  0  0  0  0  0  0
  1  2  1  0  0  0  0
  1  3  2  0  0  0  0
  1  4  1  0  0  0  0
  4  5  1  0  0  0  0
  4  6  1  0  0  0  0
  4  7  1  0  0  0  0
  7  8  1  0  0  0  0
  7  9  1  0  0  0  0
  7 10  1  0  0  0  0
 10 11  1  0  0  0  0
 10 12  1  0  0  0  0
 10 13  1  0  0  0  0
 13 14  1  0  0  0  0
 13 15  1  0  0  0  0
 13 16  1  0  0  0  0
 16 17  1  0  0  0  0
 16 18  1  0  0  0  0
 16 19  1  0  0  0  0
 19 20  1  0  0  0  0
 19 21  1  0  0  0  0
 19 22  1  0  0  0  0
M  END
> <VConfSearch Rank>
610

> <Conf_Id>
44

> <Delta U+W>
-0.155

> <U+W>
-53.314

> <U>
7.937

> <W>
-61.252

> <W(PB)>
-63.556

> <W(SA)>
2.304

> <Valence>
7.358

> <Coulomb>
-0.021

> <VdW>
0.600

> <VdW6>
-7.363

> <VdW12>
7.964

> <Bond>
0.121

> <Angle>
2.425

> <Pdih>
4.811

> <Idih>
0.001

> <Tether>
0.000

$$$$
VeraChem MOL file


 22 21  0  0  0  0  0  0  0  0999 V2000     
   20.5098   15.6943   21.3930 C   0  0  0  0  0  0  0  0  0  0  0  0
   21.6251   15.3784   21.7578 O   0  5  0  0  0  0  0  0  0  0  0  0
   20.0991   15.5242   20.2619 O   0  0  0  0  0  0  0  0  0  0  0  0
   19.5686   16.3214   22.4178 C   0  0  0  0  0  0  0  0  0  0  0  0
   19.6335   15.7200   23.3322 H   0  0  0  0  0  0  0  0  0  0  0  0
   18.5392   16.2301   22.0505 H   0  0  0  0  0  0  0  0  0  0  0  0
   19.8896   17.8023   22.7487 C   0  0  0  0  0  0  0  0  0  0  0  0
   19.2661   18.1116   23.5971 H   0  0  0  0  0  0  0  0  0  0  0  0
   20.9352   17.8834   23.0765 H   0  0  0  0  0  0  0  0  0  0  0  0
   19.6414   18.7463   21.5477 C   0  0  0  0  0  0  0  0  0  0  0  0
   18.5857   18.6955   21.2482 H   0  0  0  0  0  0  0  0  0  0  0  0
   20.2243   18.3938   20.6857 H   0  0  0  0  0  0  0  0  0  0  0  0
   20.0306   20.2171   21.8286 C   0  0  0  0  0  0  0  0  0  0  0  0
   21.0863   20.2674   22.1283 H   0  0  0  0  0  0  0  0  0  0  0  0
   19.9469   20.7837   20.8911 H   0  0  0  0  0  0  0  0  0  0  0  0
   19.1506   20.8947   22.9033 C   0  0  0  0  0  0  0  0  0  0  0  0
   19.2808   20.3929   23.8710 H   0  0  0  0  0  0  0  0  0  0  0  0
   18.0908   20.7964   22.6305 H   0  0  0  0  0  0  0  0  0  0  0  0
   19.5018   22.3877   23.0623 C   0  0  0  0  0  0  0  0  0  0  0  0
   20.5505   22.5144   23.3617 H   0  0  0  0  0  0  0  0  0  0  0  0
   18.8713   22.8537   23.8306 H   0  0  0  0  0  0  0  0  0  0  0  0
   19.3458   22.9309   22.1210 H   0  0  0  0  0  0  0  0  0  0  0  0
  1  2  1  0  0  0  0
  1  3  2  0  0  0  0
  1  4  1  0  0  0  0
  4  5  1  0  0  0  0
  4  6  1  0  0  0  0
  4  7  1  0  0  0  0
  7  8  1  0  0  0  0
  7  9  1  0  0  0  0
  7 10  1  0  0  0  0
 10 11  1  0  0  0  0
 10 12  1  0  0  0  0
 10 13  1  0  0  0  0
 13 14  1  0  0  0  0
 13 15  1  0  0  0  0
 13 16  1  0  0  0  0
 16 17  1  0  0  0  0
 16 18  1  0  0  0  0
 16 19  1  0  0  0  0
 19 20  1  0  0  0  0
 19 21  1  0  0  0  0
 19 22  1  0  0  0  0
M  END
> <VConfSearch Rank>
611

> <Conf_Id>
53

> <Delta U+W>
0.723

> <U+W>
-52.436

> <U>
8.587

> <W>
-61.022

> <W(PB)>
-63.285

> <W(SA)>
2.263

> <Valence>
7.933

> <Coulomb>
-0.124

> <VdW>
0.778

> <VdW6>
-7.981

> <VdW12>
8.759

> <Bond>
0.160

> <Angle>
2.698

> <Pdih>
5.074

> <Idih>
0.001

> <Tether>
0.000

$$$$
VeraChem MOL file


 22 21  0  0  0  0  0  0  0  0999 V2000     
   19.5627   16.9002   19.7400 C   0  0  0  0  0  0  0  0  0  0  0  0
   19.7019   15.7594   20.1347 O   0  5  0  0  0  0  0  0  0  0  0  0
   19.3131   17.1868   18.5858 O   0  0  0  0  0  0  0  0  0  0  0  0
   19.6858   18.0331   20.7526 C   0  0  0  0  0  0  0  0  0  0  0  0
   20.0766   18.9152   20.2316 H   0  0  0  0  0  0  0  0  0  0  0  0
   20.4307   17.7319   21.4976 H   0  0  0  0  0  0  0  0  0  0  0  0
   18.3399   18.3702   21.4426 C   0  0  0  0  0  0  0  0  0  0  0  0
   17.5783   18.5336   20.6676 H   0  0  0  0  0  0  0  0  0  0  0  0
   18.0045   17.5006   22.0244 H   0  0  0  0  0  0  0  0  0  0  0  0
   18.3864   19.6202   22.3570 C   0  0  0  0  0  0  0  0  0  0  0  0
   17.3719   19.7829   22.7460 H   0  0  0  0  0  0  0  0  0  0  0  0
   18.6248   20.5134   21.7634 H   0  0  0  0  0  0  0  0  0  0  0  0
   19.3524   19.5025   23.5630 C   0  0  0  0  0  0  0  0  0  0  0  0
   18.8982   20.0123   24.4237 H   0  0  0  0  0  0  0  0  0  0  0  0
   19.4642   18.4496   23.8558 H   0  0  0  0  0  0  0  0  0  0  0  0
   20.7373   20.1395   23.3037 C   0  0  0  0  0  0  0  0  0  0  0  0
   20.6131   21.2056   23.0685 H   0  0  0  0  0  0  0  0  0  0  0  0
   21.2168   19.6798   22.4313 H   0  0  0  0  0  0  0  0  0  0  0  0
   21.6647   19.9933   24.5267 C   0  0  0  0  0  0  0  0  0  0  0  0
   21.2306   20.4802   25.4098 H   0  0  0  0  0  0  0  0  0  0  0  0
   22.6404   20.4561   24.3298 H   0  0  0  0  0  0  0  0  0  0  0  0
   21.8336   18.9353   24.7665 H   0  0  0  0  0  0  0  0  0  0  0  0
  1  2  1  0  0  0  0
  1  3  2  0  0  0  0
  1  4  1  0  0  0  0
  4  5  1  0  0  0  0
  4  6  1  0  0  0  0
  4  7  1  0  0  0  0
  7  8  1  0  0  0  0
  7  9  1  0  0  0  0
  7 10  1  0  0  0  0
 10 11  1  0  0  0  0
 10 12  1  0  0  0  0
 10 13  1  0  0  0  0
 13 14  1  0  0  0  0
 13 15  1  0  0  0  0
 13 16  1  0  0  0  0
 16 17  1  0  0  0  0
 16 18  1  0  0  0  0
 16 19  1  0  0  0  0
 19 20  1  0  0  0  0
 19 21  1  0  0  0  0
 19 22  1  0  0  0  0
M  END
> <VConfSearch Rank>
612

> <Conf_Id>
5

> <Delta U+W>
2.167

> <U+W>
-50.993

> <U>
10.045

> <W>
-61.037

> <W(PB)>
-63.303

> <W(SA)>
2.266

> <Valence>
10.100

> <Coulomb>
-0.883

> <VdW>
0.828

> <VdW6>
-8.177

> <VdW12>
9.005

> <Bond>
0.182

> <Angle>
2.988

> <Pdih>
6.930

> <Idih>
0.001

> <Tether>
0.000

$$$$
VeraChem MOL file


 22 21  0  0  0  0  0  0  0  0999 V2000     
   19.7931   15.5626   22.2047 C   0  0  0  0  0  0  0  0  0  0  0  0
   20.7793   15.1684   21.6144 O   0  5  0  0  0  0  0  0  0  0  0  0
   18.9042   14.8307   22.5929 O   0  0  0  0  0  0  0  0  0  0  0  0
   19.6520   17.0603   22.4521 C   0  0  0  0  0  0  0  0  0  0  0  0
   20.6579   17.4668   22.6054 H   0  0  0  0  0  0  0  0  0  0  0  0
   19.0925   17.2007   23.3846 H   0  0  0  0  0  0  0  0  0  0  0  0
   18.9453   17.7972   21.2865 C   0  0  0  0  0  0  0  0  0  0  0  0
   19.5605   17.7129   20.3800 H   0  0  0  0  0  0  0  0  0  0  0  0
   18.0004   17.2815   21.0655 H   0  0  0  0  0  0  0  0  0  0  0  0
   18.6365   19.2892   21.5677 C   0  0  0  0  0  0  0  0  0  0  0  0
   17.9412   19.3778   22.4136 H   0  0  0  0  0  0  0  0  0  0  0  0
   18.0976   19.6851   20.6960 H   0  0  0  0  0  0  0  0  0  0  0  0
   19.8867   20.1739   21.8044 C   0  0  0  0  0  0  0  0  0  0  0  0
   20.7524   19.7537   21.2742 H   0  0  0  0  0  0  0  0  0  0  0  0
   19.7044   21.1608   21.3575 H   0  0  0  0  0  0  0  0  0  0  0  0
   20.2187   20.3783   23.3007 C   0  0  0  0  0  0  0  0  0  0  0  0
   20.3799   19.4134   23.7960 H   0  0  0  0  0  0  0  0  0  0  0  0
   19.3650   20.8517   23.8050 H   0  0  0  0  0  0  0  0  0  0  0  0
   21.4710   21.2582   23.4868 C   0  0  0  0  0  0  0  0  0  0  0  0
   22.3495   20.7938   23.0198 H   0  0  0  0  0  0  0  0  0  0  0  0
   21.6893   21.3998   24.5532 H   0  0  0  0  0  0  0  0  0  0  0  0
   21.3262   22.2487   23.0359 H   0  0  0  0  0  0  0  0  0  0  0  0
  1  2  1  0  0  0  0
  1  3  2  0  0  0  0
  1  4  1  0  0  0  0
  4  5  1  0  0  0  0
  4  6  1  0  0  0  0
  4  7  1  0  0  0  0
  7  8  1  0  0  0  0
  7  9  1  0  0  0  0
  7 10  1  0  0  0  0
 10 11  1  0  0  0  0
 10 12  1  0  0  0  0
 10 13  1  0  0  0  0
 13 14  1  0  0  0  0
 13 15  1  0  0  0  0
 13 16  1  0  0  0  0
 16 17  1  0  0  0  0
 16 18  1  0  0  0  0
 16 19  1  0  0  0  0
 19 20  1  0  0  0  0
 19 21  1  0  0  0  0
 19 22  1  0  0  0  0
M  END
> <VConfSearch Rank>
613

> <Conf_Id>
6

> <Delta U+W>
2.118

> <U+W>
-51.042

> <U>
10.045

> <W>
-61.086

> <W(PB)>
-63.356

> <W(SA)>
2.270

> <Valence>
10.100

> <Coulomb>
-0.883

> <VdW>
0.828

> <VdW6>
-8.177

> <VdW12>
9.004

> <Bond>
0.182

> <Angle>
2.988

> <Pdih>
6.930

> <Idih>
0.001

> <Tether>
0.000

$$$$
VeraChem MOL file


 22 21  0  0  0  0  0  0  0  0999 V2000     
   18.4283   17.9828   20.3973 C   0  0  0  0  0  0  0  0  0  0  0  0
   17.3592   18.5534   20.3028 O   0  5  0  0  0  0  0  0  0  0  0  0
   18.5380   16.8106   20.6990 O   0  0  0  0  0  0  0  0  0  0  0  0
   19.6976   18.7586   20.0502 C   0  0  0  0  0  0  0  0  0  0  0  0
   19.6136   19.0289   18.9912 H   0  0  0  0  0  0  0  0  0  0  0  0
   20.5605   18.0869   20.1350 H   0  0  0  0  0  0  0  0  0  0  0  0
   19.9357   20.0490   20.8840 C   0  0  0  0  0  0  0  0  0  0  0  0
   20.6301   20.6905   20.3247 H   0  0  0  0  0  0  0  0  0  0  0  0
   18.9998   20.6186   20.9683 H   0  0  0  0  0  0  0  0  0  0  0  0
   20.5416   19.8116   22.2895 C   0  0  0  0  0  0  0  0  0  0  0  0
   20.8075   20.7884   22.7165 H   0  0  0  0  0  0  0  0  0  0  0  0
   21.4807   19.2493   22.1971 H   0  0  0  0  0  0  0  0  0  0  0  0
   19.5941   19.0831   23.2694 C   0  0  0  0  0  0  0  0  0  0  0  0
   18.6185   19.5880   23.2836 H   0  0  0  0  0  0  0  0  0  0  0  0
   19.4195   18.0559   22.9253 H   0  0  0  0  0  0  0  0  0  0  0  0
   20.1749   19.0400   24.6987 C   0  0  0  0  0  0  0  0  0  0  0  0
   20.3470   20.0631   25.0606 H   0  0  0  0  0  0  0  0  0  0  0  0
   21.1517   18.5368   24.6858 H   0  0  0  0  0  0  0  0  0  0  0  0
   19.2324   18.3048   25.6726 C   0  0  0  0  0  0  0  0  0  0  0  0
   18.2571   18.8058   25.7283 H   0  0  0  0  0  0  0  0  0  0  0  0
   19.6606   18.2823   26.6831 H   0  0  0  0  0  0  0  0  0  0  0  0
   19.0670   17.2681   25.3510 H   0  0  0  0  0  0  0  0  0  0  0  0
  1  2  1  0  0  0  0
  1  3  2  0  0  0  0
  1  4  1  0  0  0  0
  4  5  1  0  0  0  0
  4  6  1  0  0  0  0
  4  7  1  0  0  0  0
  7  8  1  0  0  0  0
  7  9  1  0  0  0  0
  7 10  1  0  0  0  0
 10 11  1  0  0  0  0
 10 12  1  0  0  0  0
 10 13  1  0  0  0  0
 13 14  1  0  0  0  0
 13 15  1  0  0  0  0
 13 16  1  0  0  0  0
 16 17  1  0  0  0  0
 16 18  1  0  0  0  0
 16 19  1  0  0  0  0
 19 20  1  0  0  0  0
 19 21  1  0  0  0  0
 19 22  1  0  0  0  0
M  END
> <VConfSearch Rank>
614

> <Conf_Id>
8

> <Delta U+W>
1.886

> <U+W>
-51.274

> <U>
11.237

> <W>
-62.510

> <W(PB)>
-64.777

> <W(SA)>
2.267

> <Valence>
9.029

> <Coulomb>
1.667

> <VdW>
0.540

> <VdW6>
-8.825

> <VdW12>
9.365

> <Bond>
0.186

> <Angle>
3.195

> <Pdih>
5.642

> <Idih>
0.007

> <Tether>
0.000

$$$$
VeraChem MOL file


 22 21  0  0  0  0  0  0  0  0999 V2000     
   17.5552   18.8804   24.6935 C   0  0  0  0  0  0  0  0  0  0  0  0
   18.4319   18.6616   25.5061 O   0  5  0  0  0  0  0  0  0  0  0  0
   16.5079   18.2648   24.6527 O   0  0  0  0  0  0  0  0  0  0  0  0
   17.7657   20.0087   23.6876 C   0  0  0  0  0  0  0  0  0  0  0  0
   18.6023   20.6300   24.0264 H   0  0  0  0  0  0  0  0  0  0  0  0
   16.8743   20.6457   23.7220 H   0  0  0  0  0  0  0  0  0  0  0  0
   17.9943   19.5255   22.2290 C   0  0  0  0  0  0  0  0  0  0  0  0
   17.1027   18.9751   21.8983 H   0  0  0  0  0  0  0  0  0  0  0  0
   18.0783   20.3992   21.5688 H   0  0  0  0  0  0  0  0  0  0  0  0
   19.2362   18.6202   22.0366 C   0  0  0  0  0  0  0  0  0  0  0  0
   19.2399   18.2674   20.9976 H   0  0  0  0  0  0  0  0  0  0  0  0
   19.1442   17.7253   22.6673 H   0  0  0  0  0  0  0  0  0  0  0  0
   20.5743   19.3362   22.3434 C   0  0  0  0  0  0  0  0  0  0  0  0
   20.6611   20.2424   21.7289 H   0  0  0  0  0  0  0  0  0  0  0  0
   20.5773   19.6654   23.3906 H   0  0  0  0  0  0  0  0  0  0  0  0
   21.8152   18.4398   22.1228 C   0  0  0  0  0  0  0  0  0  0  0  0
   21.7234   17.5251   22.7248 H   0  0  0  0  0  0  0  0  0  0  0  0
   22.7019   18.9695   22.4974 H   0  0  0  0  0  0  0  0  0  0  0  0
   22.0498   18.0682   20.6424 C   0  0  0  0  0  0  0  0  0  0  0  0
   21.2446   17.4318   20.2551 H   0  0  0  0  0  0  0  0  0  0  0  0
   22.9916   17.5155   20.5306 H   0  0  0  0  0  0  0  0  0  0  0  0
   22.1100   18.9679   20.0162 H   0  0  0  0  0  0  0  0  0  0  0  0
  1  2  1  0  0  0  0
  1  3  2  0  0  0  0
  1  4  1  0  0  0  0
  4  5  1  0  0  0  0
  4  6  1  0  0  0  0
  4  7  1  0  0  0  0
  7  8  1  0  0  0  0
  7  9  1  0  0  0  0
  7 10  1  0  0  0  0
 10 11  1  0  0  0  0
 10 12  1  0  0  0  0
 10 13  1  0  0  0  0
 13 14  1  0  0  0  0
 13 15  1  0  0  0  0
 13 16  1  0  0  0  0
 16 17  1  0  0  0  0
 16 18  1  0  0  0  0
 16 19  1  0  0  0  0
 19 20  1  0  0  0  0
 19 21  1  0  0  0  0
 19 22  1  0  0  0  0
M  END
> <VConfSearch Rank>
615

> <Conf_Id>
93

> <Delta U+W>
1.836

> <U+W>
-51.323

> <U>
10.427

> <W>
-61.751

> <W(PB)>
-63.980

> <W(SA)>
2.230

> <Valence>
8.446

> <Coulomb>
1.306

> <VdW>
0.676

> <VdW6>
-8.928

> <VdW12>
9.604

> <Bond>
0.209

> <Angle>
3.066

> <Pdih>
5.170

> <Idih>
0.001

> <Tether>
0.000

$$$$
VeraChem MOL file


 22 21  0  0  0  0  0  0  0  0999 V2000     
   22.5566   18.0185   22.9446 C   0  0  0  0  0  0  0  0  0  0  0  0
   22.9780   17.6132   24.0102 O   0  5  0  0  0  0  0  0  0  0  0  0
   23.0198   18.9778   22.3598 O   0  0  0  0  0  0  0  0  0  0  0  0
   21.4026   17.2616   22.2929 C   0  0  0  0  0  0  0  0  0  0  0  0
   21.6715   16.1988   22.2893 H   0  0  0  0  0  0  0  0  0  0  0  0
   21.3316   17.5655   21.2426 H   0  0  0  0  0  0  0  0  0  0  0  0
   20.0375   17.4424   23.0118 C   0  0  0  0  0  0  0  0  0  0  0  0
   19.2819   16.8212   22.5121 H   0  0  0  0  0  0  0  0  0  0  0  0
   20.1263   17.0539   24.0357 H   0  0  0  0  0  0  0  0  0  0  0  0
   19.5321   18.9049   23.0779 C   0  0  0  0  0  0  0  0  0  0  0  0
   20.2659   19.5274   23.6079 H   0  0  0  0  0  0  0  0  0  0  0  0
   18.6180   18.9199   23.6847 H   0  0  0  0  0  0  0  0  0  0  0  0
   19.2385   19.5190   21.6871 C   0  0  0  0  0  0  0  0  0  0  0  0
   20.1609   19.5256   21.0921 H   0  0  0  0  0  0  0  0  0  0  0  0
   18.5199   18.8887   21.1460 H   0  0  0  0  0  0  0  0  0  0  0  0
   18.7062   20.9695   21.7562 C   0  0  0  0  0  0  0  0  0  0  0  0
   18.6627   21.3763   20.7365 H   0  0  0  0  0  0  0  0  0  0  0  0
   19.4160   21.5988   22.3108 H   0  0  0  0  0  0  0  0  0  0  0  0
   17.3037   21.0799   22.3930 C   0  0  0  0  0  0  0  0  0  0  0  0
   17.3203   20.7988   23.4532 H   0  0  0  0  0  0  0  0  0  0  0  0
   16.5849   20.4315   21.8753 H   0  0  0  0  0  0  0  0  0  0  0  0
   16.9342   22.1116   22.3296 H   0  0  0  0  0  0  0  0  0  0  0  0
  1  2  1  0  0  0  0
  1  3  2  0  0  0  0
  1  4  1  0  0  0  0
  4  5  1  0  0  0  0
  4  6  1  0  0  0  0
  4  7  1  0  0  0  0
  7  8  1  0  0  0  0
  7  9  1  0  0  0  0
  7 10  1  0  0  0  0
 10 11  1  0  0  0  0
 10 12  1  0  0  0  0
 10 13  1  0  0  0  0
 13 14  1  0  0  0  0
 13 15  1  0  0  0  0
 13 16  1  0  0  0  0
 16 17  1  0  0  0  0
 16 18  1  0  0  0  0
 16 19  1  0  0  0  0
 19 20  1  0  0  0  0
 19 21  1  0  0  0  0
 19 22  1  0  0  0  0
M  END
> <VConfSearch Rank>
616

> <Conf_Id>
70

> <Delta U+W>
1.803

> <U+W>
-51.356

> <U>
10.428

> <W>
-61.784

> <W(PB)>
-64.014

> <W(SA)>
2.230

> <Valence>
8.445

> <Coulomb>
1.306

> <VdW>
0.676

> <VdW6>
-8.929

> <VdW12>
9.605

> <Bond>
0.209

> <Angle>
3.066

> <Pdih>
5.170

> <Idih>
0.001

> <Tether>
0.000

$$$$
VeraChem MOL file


 22 21  0  0  0  0  0  0  0  0999 V2000     
   17.1976   16.8907   21.8165 C   0  0  0  0  0  0  0  0  0  0  0  0
   17.4385   15.9588   22.5585 O   0  5  0  0  0  0  0  0  0  0  0  0
   17.0600   16.7750   20.6146 O   0  0  0  0  0  0  0  0  0  0  0  0
   17.0388   18.2779   22.4326 C   0  0  0  0  0  0  0  0  0  0  0  0
   16.4076   18.1716   23.3228 H   0  0  0  0  0  0  0  0  0  0  0  0
   16.4888   18.9132   21.7278 H   0  0  0  0  0  0  0  0  0  0  0  0
   18.3802   18.9494   22.8259 C   0  0  0  0  0  0  0  0  0  0  0  0
   18.1675   19.8760   23.3759 H   0  0  0  0  0  0  0  0  0  0  0  0
   18.9204   18.2873   23.5154 H   0  0  0  0  0  0  0  0  0  0  0  0
   19.2615   19.2757   21.5966 C   0  0  0  0  0  0  0  0  0  0  0  0
   18.6718   19.8651   20.8811 H   0  0  0  0  0  0  0  0  0  0  0  0
   19.5378   18.3471   21.0784 H   0  0  0  0  0  0  0  0  0  0  0  0
   20.5417   20.0694   21.9496 C   0  0  0  0  0  0  0  0  0  0  0  0
   21.0384   20.3623   21.0144 H   0  0  0  0  0  0  0  0  0  0  0  0
   20.2676   21.0023   22.4609 H   0  0  0  0  0  0  0  0  0  0  0  0
   21.5399   19.2723   22.8192 C   0  0  0  0  0  0  0  0  0  0  0  0
   21.7732   18.3152   22.3324 H   0  0  0  0  0  0  0  0  0  0  0  0
   21.0893   19.0356   23.7919 H   0  0  0  0  0  0  0  0  0  0  0  0
   22.8446   20.0612   23.0496 C   0  0  0  0  0  0  0  0  0  0  0  0
   23.3439   20.2824   22.0972 H   0  0  0  0  0  0  0  0  0  0  0  0
   23.5413   19.4835   23.6709 H   0  0  0  0  0  0  0  0  0  0  0  0
   22.6433   21.0119   23.5604 H   0  0  0  0  0  0  0  0  0  0  0  0
  1  2  1  0  0  0  0
  1  3  2  0  0  0  0
  1  4  1  0  0  0  0
  4  5  1  0  0  0  0
  4  6  1  0  0  0  0
  4  7  1  0  0  0  0
  7  8  1  0  0  0  0
  7  9  1  0  0  0  0
  7 10  1  0  0  0  0
 10 11  1  0  0  0  0
 10 12  1  0  0  0  0
 10 13  1  0  0  0  0
 13 14  1  0  0  0  0
 13 15  1  0  0  0  0
 13 16  1  0  0  0  0
 16 17  1  0  0  0  0
 16 18  1  0  0  0  0
 16 19  1  0  0  0  0
 19 20  1  0  0  0  0
 19 21  1  0  0  0  0
 19 22  1  0  0  0  0
M  END
> <VConfSearch Rank>
617

> <Conf_Id>
85

> <Delta U+W>
0.707

> <U+W>
-52.452

> <U>
8.925

> <W>
-61.378

> <W(PB)>
-63.661

> <W(SA)>
2.283

> <Valence>
7.881

> <Coulomb>
0.349

> <VdW>
0.695

> <VdW6>
-8.049

> <VdW12>
8.743

> <Bond>
0.156

> <Angle>
2.660

> <Pdih>
5.064

> <Idih>
0.001

> <Tether>
0.000

$$$$
VeraChem MOL file


 22 21  0  0  0  0  0  0  0  0999 V2000     
   22.4028   20.2570   24.0491 C   0  0  0  0  0  0  0  0  0  0  0  0
   22.0292   21.0388   24.9013 O   0  5  0  0  0  0  0  0  0  0  0  0
   23.2404   19.3986   24.2455 O   0  0  0  0  0  0  0  0  0  0  0  0
   21.8059   20.3727   22.6493 C   0  0  0  0  0  0  0  0  0  0  0  0
   22.6361   20.3232   21.9350 H   0  0  0  0  0  0  0  0  0  0  0  0
   21.3534   21.3660   22.5417 H   0  0  0  0  0  0  0  0  0  0  0  0
   20.7670   19.2717   22.3112 C   0  0  0  0  0  0  0  0  0  0  0  0
   20.5189   19.3466   21.2450 H   0  0  0  0  0  0  0  0  0  0  0  0
   21.2190   18.2826   22.4685 H   0  0  0  0  0  0  0  0  0  0  0  0
   19.4725   19.3980   23.1474 C   0  0  0  0  0  0  0  0  0  0  0  0
   18.9824   20.3542   22.9189 H   0  0  0  0  0  0  0  0  0  0  0  0
   19.7339   19.4348   24.2138 H   0  0  0  0  0  0  0  0  0  0  0  0
   18.4648   18.2397   22.9388 C   0  0  0  0  0  0  0  0  0  0  0  0
   18.9148   17.2881   23.2531 H   0  0  0  0  0  0  0  0  0  0  0  0
   17.6210   18.4100   23.6214 H   0  0  0  0  0  0  0  0  0  0  0  0
   17.9033   18.1188   21.5000 C   0  0  0  0  0  0  0  0  0  0  0  0
   17.9107   19.0993   21.0042 H   0  0  0  0  0  0  0  0  0  0  0  0
   16.8492   17.8147   21.5590 H   0  0  0  0  0  0  0  0  0  0  0  0
   18.6527   17.0772   20.6395 C   0  0  0  0  0  0  0  0  0  0  0  0
   19.7134   17.3281   20.5260 H   0  0  0  0  0  0  0  0  0  0  0  0
   18.2124   17.0205   19.6357 H   0  0  0  0  0  0  0  0  0  0  0  0
   18.5877   16.0788   21.0913 H   0  0  0  0  0  0  0  0  0  0  0  0
  1  2  1  0  0  0  0
  1  3  2  0  0  0  0
  1  4  1  0  0  0  0
  4  5  1  0  0  0  0
  4  6  1  0  0  0  0
  4  7  1  0  0  0  0
  7  8  1  0  0  0  0
  7  9  1  0  0  0  0
  7 10  1  0  0  0  0
 10 11  1  0  0  0  0
 10 12  1  0  0  0  0
 10 13  1  0  0  0  0
 13 14  1  0  0  0  0
 13 15  1  0  0  0  0
 13 16  1  0  0  0  0
 16 17  1  0  0  0  0
 16 18  1  0  0  0  0
 16 19  1  0  0  0  0
 19 20  1  0  0  0  0
 19 21  1  0  0  0  0
 19 22  1  0  0  0  0
M  END
> <VConfSearch Rank>
618

> <Conf_Id>
82

> <Delta U+W>
3.438

> <U+W>
-49.721

> <U>
11.773

> <W>
-61.495

> <W(PB)>
-63.749

> <W(SA)>
2.254

> <Valence>
10.419

> <Coulomb>
0.565

> <VdW>
0.789

> <VdW6>
-8.847

> <VdW12>
9.636

> <Bond>
0.200

> <Angle>
3.187

> <Pdih>
7.032

> <Idih>
0.001

> <Tether>
0.000

$$$$
VeraChem MOL file


 22 21  0  0  0  0  0  0  0  0999 V2000     
   16.8622   19.5153   21.2111 C   0  0  0  0  0  0  0  0  0  0  0  0
   16.9421   19.7000   20.0126 O   0  5  0  0  0  0  0  0  0  0  0  0
   16.0180   18.8099   21.7276 O   0  0  0  0  0  0  0  0  0  0  0  0
   17.8631   20.2273   22.1170 C   0  0  0  0  0  0  0  0  0  0  0  0
   17.4630   20.2432   23.1380 H   0  0  0  0  0  0  0  0  0  0  0  0
   17.9220   21.2698   21.7829 H   0  0  0  0  0  0  0  0  0  0  0  0
   19.2821   19.6009   22.1078 C   0  0  0  0  0  0  0  0  0  0  0  0
   19.6511   19.5480   21.0742 H   0  0  0  0  0  0  0  0  0  0  0  0
   19.9577   20.2682   22.6574 H   0  0  0  0  0  0  0  0  0  0  0  0
   19.3163   18.1954   22.7516 C   0  0  0  0  0  0  0  0  0  0  0  0
   18.5588   17.5604   22.2722 H   0  0  0  0  0  0  0  0  0  0  0  0
   19.0279   18.2713   23.8088 H   0  0  0  0  0  0  0  0  0  0  0  0
   20.6852   17.4782   22.6411 C   0  0  0  0  0  0  0  0  0  0  0  0
   20.5693   16.4773   23.0789 H   0  0  0  0  0  0  0  0  0  0  0  0
   20.9399   17.3138   21.5851 H   0  0  0  0  0  0  0  0  0  0  0  0
   21.8520   18.1903   23.3701 C   0  0  0  0  0  0  0  0  0  0  0  0
   22.5118   17.4272   23.8056 H   0  0  0  0  0  0  0  0  0  0  0  0
   21.4703   18.7813   24.2140 H   0  0  0  0  0  0  0  0  0  0  0  0
   22.7027   19.0785   22.4349 C   0  0  0  0  0  0  0  0  0  0  0  0
   23.1485   18.4812   21.6289 H   0  0  0  0  0  0  0  0  0  0  0  0
   23.5206   19.5513   22.9938 H   0  0  0  0  0  0  0  0  0  0  0  0
   22.1073   19.8753   21.9750 H   0  0  0  0  0  0  0  0  0  0  0  0
  1  2  1  0  0  0  0
  1  3  2  0  0  0  0
  1  4  1  0  0  0  0
  4  5  1  0  0  0  0
  4  6  1  0  0  0  0
  4  7  1  0  0  0  0
  7  8  1  0  0  0  0
  7  9  1  0  0  0  0
  7 10  1  0  0  0  0
 10 11  1  0  0  0  0
 10 12  1  0  0  0  0
 10 13  1  0  0  0  0
 13 14  1  0  0  0  0
 13 15  1  0  0  0  0
 13 16  1  0  0  0  0
 16 17  1  0  0  0  0
 16 18  1  0  0  0  0
 16 19  1  0  0  0  0
 19 20  1  0  0  0  0
 19 21  1  0  0  0  0
 19 22  1  0  0  0  0
M  END
> <VConfSearch Rank>
619

> <Conf_Id>
94

> <Delta U+W>
3.471

> <U+W>
-49.688

> <U>
11.773

> <W>
-61.461

> <W(PB)>
-63.710

> <W(SA)>
2.248

> <Valence>
10.419

> <Coulomb>
0.566

> <VdW>
0.789

> <VdW6>
-8.847

> <VdW12>
9.636

> <Bond>
0.200

> <Angle>
3.187

> <Pdih>
7.032

> <Idih>
0.001

> <Tether>
0.000

$$$$
VeraChem MOL file


 22 21  0  0  0  0  0  0  0  0999 V2000     
   17.2303   19.8330   24.3133 C   0  0  0  0  0  0  0  0  0  0  0  0
   17.1611   20.2951   25.4351 O   0  5  0  0  0  0  0  0  0  0  0  0
   16.3937   19.0902   23.8391 O   0  0  0  0  0  0  0  0  0  0  0  0
   18.4432   20.1898   23.4615 C   0  0  0  0  0  0  0  0  0  0  0  0
   18.7591   21.2058   23.7264 H   0  0  0  0  0  0  0  0  0  0  0  0
   18.1209   20.2112   22.4143 H   0  0  0  0  0  0  0  0  0  0  0  0
   19.6204   19.1979   23.6482 C   0  0  0  0  0  0  0  0  0  0  0  0
   19.8649   19.1375   24.7176 H   0  0  0  0  0  0  0  0  0  0  0  0
   19.3019   18.1896   23.3522 H   0  0  0  0  0  0  0  0  0  0  0  0
   20.8985   19.6022   22.8714 C   0  0  0  0  0  0  0  0  0  0  0  0
   21.6949   18.8813   23.0984 H   0  0  0  0  0  0  0  0  0  0  0  0
   21.2548   20.5683   23.2538 H   0  0  0  0  0  0  0  0  0  0  0  0
   20.7297   19.7109   21.3330 C   0  0  0  0  0  0  0  0  0  0  0  0
   20.0542   20.5443   21.0994 H   0  0  0  0  0  0  0  0  0  0  0  0
   21.6987   19.9828   20.8931 H   0  0  0  0  0  0  0  0  0  0  0  0
   20.2073   18.4310   20.6353 C   0  0  0  0  0  0  0  0  0  0  0  0
   20.1038   18.6352   19.5608 H   0  0  0  0  0  0  0  0  0  0  0  0
   19.1993   18.1877   20.9968 H   0  0  0  0  0  0  0  0  0  0  0  0
   21.1364   17.2121   20.8221 C   0  0  0  0  0  0  0  0  0  0  0  0
   22.1551   17.4390   20.4818 H   0  0  0  0  0  0  0  0  0  0  0  0
   20.7683   16.3558   20.2425 H   0  0  0  0  0  0  0  0  0  0  0  0
   21.1849   16.9057   21.8746 H   0  0  0  0  0  0  0  0  0  0  0  0
  1  2  1  0  0  0  0
  1  3  2  0  0  0  0
  1  4  1  0  0  0  0
  4  5  1  0  0  0  0
  4  6  1  0  0  0  0
  4  7  1  0  0  0  0
  7  8  1  0  0  0  0
  7  9  1  0  0  0  0
  7 10  1  0  0  0  0
 10 11  1  0  0  0  0
 10 12  1  0  0  0  0
 10 13  1  0  0  0  0
 13 14  1  0  0  0  0
 13 15  1  0  0  0  0
 13 16  1  0  0  0  0
 16 17  1  0  0  0  0
 16 18  1  0  0  0  0
 16 19  1  0  0  0  0
 19 20  1  0  0  0  0
 19 21  1  0  0  0  0
 19 22  1  0  0  0  0
M  END
> <VConfSearch Rank>
620

> <Conf_Id>
56

> <Delta U+W>
0.853

> <U+W>
-52.307

> <U>
8.874

> <W>
-61.181

> <W(PB)>
-63.413

> <W(SA)>
2.232

> <Valence>
8.479

> <Coulomb>
-0.357

> <VdW>
0.753

> <VdW6>
-9.081

> <VdW12>
9.833

> <Bond>
0.221

> <Angle>
3.208

> <Pdih>
5.050

> <Idih>
0.000

> <Tether>
0.000

$$$$
VeraChem MOL file


 22 21  0  0  0  0  0  0  0  0999 V2000     
   21.9525   18.2536   25.5368 C   0  0  0  0  0  0  0  0  0  0  0  0
   23.0186   18.3089   24.9547 O   0  5  0  0  0  0  0  0  0  0  0  0
   21.8582   18.0463   26.7301 O   0  0  0  0  0  0  0  0  0  0  0  0
   20.6511   18.4499   24.7574 C   0  0  0  0  0  0  0  0  0  0  0  0
   20.1161   19.2876   25.2201 H   0  0  0  0  0  0  0  0  0  0  0  0
   20.0390   17.5536   24.9120 H   0  0  0  0  0  0  0  0  0  0  0  0
   20.8222   18.7123   23.2375 C   0  0  0  0  0  0  0  0  0  0  0  0
   21.4414   19.6079   23.0897 H   0  0  0  0  0  0  0  0  0  0  0  0
   21.3642   17.8723   22.7813 H   0  0  0  0  0  0  0  0  0  0  0  0
   19.4622   18.8985   22.5302 C   0  0  0  0  0  0  0  0  0  0  0  0
   18.9222   19.7388   22.9880 H   0  0  0  0  0  0  0  0  0  0  0  0
   18.8448   18.0020   22.6795 H   0  0  0  0  0  0  0  0  0  0  0  0
   19.6347   19.1593   21.0184 C   0  0  0  0  0  0  0  0  0  0  0  0
   20.2520   20.0558   20.8686 H   0  0  0  0  0  0  0  0  0  0  0  0
   20.1745   18.3193   20.5602 H   0  0  0  0  0  0  0  0  0  0  0  0
   18.2760   19.3456   20.3110 C   0  0  0  0  0  0  0  0  0  0  0  0
   17.7339   20.1865   20.7654 H   0  0  0  0  0  0  0  0  0  0  0  0
   17.6563   18.4499   20.4570 H   0  0  0  0  0  0  0  0  0  0  0  0
   18.4526   19.6057   18.8015 C   0  0  0  0  0  0  0  0  0  0  0  0
   19.0429   20.5146   18.6260 H   0  0  0  0  0  0  0  0  0  0  0  0
   17.4773   19.7357   18.3147 H   0  0  0  0  0  0  0  0  0  0  0  0
   18.9647   18.7650   18.3154 H   0  0  0  0  0  0  0  0  0  0  0  0
  1  2  1  0  0  0  0
  1  3  2  0  0  0  0
  1  4  1  0  0  0  0
  4  5  1  0  0  0  0
  4  6  1  0  0  0  0
  4  7  1  0  0  0  0
  7  8  1  0  0  0  0
  7  9  1  0  0  0  0
  7 10  1  0  0  0  0
 10 11  1  0  0  0  0
 10 12  1  0  0  0  0
 10 13  1  0  0  0  0
 13 14  1  0  0  0  0
 13 15  1  0  0  0  0
 13 16  1  0  0  0  0
 16 17  1  0  0  0  0
 16 18  1  0  0  0  0
 16 19  1  0  0  0  0
 19 20  1  0  0  0  0
 19 21  1  0  0  0  0
 19 22  1  0  0  0  0
M  END
> <VConfSearch Rank>
621

> <Conf_Id>
0

> <Delta U+W>
0.000

> <U+W>
-53.159

> <U>
6.763

> <W>
-59.922

> <W(PB)>
-62.256

> <W(SA)>
2.334

> <Valence>
7.600

> <Coulomb>
-2.139

> <VdW>
1.302

> <VdW6>
-6.786

> <VdW12>
8.088

> <Bond>
0.134

> <Angle>
2.720

> <Pdih>
4.746

> <Idih>
0.000

> <Tether>
0.000

$$$$
VeraChem MOL file


 22 21  0  0  0  0  0  0  0  0999 V2000     
   18.5582   16.6280   25.1871 C   0  0  0  0  0  0  0  0  0  0  0  0
   19.4135   15.8848   25.6259 O   0  5  0  0  0  0  0  0  0  0  0  0
   17.3769   16.3462   25.1485 O   0  0  0  0  0  0  0  0  0  0  0  0
   18.9942   17.9800   24.6338 C   0  0  0  0  0  0  0  0  0  0  0  0
   19.8647   18.3186   25.2084 H   0  0  0  0  0  0  0  0  0  0  0  0
   18.1863   18.6990   24.8152 H   0  0  0  0  0  0  0  0  0  0  0  0
   19.3365   17.9303   23.1243 C   0  0  0  0  0  0  0  0  0  0  0  0
   20.1376   17.1967   22.9579 H   0  0  0  0  0  0  0  0  0  0  0  0
   18.4592   17.5771   22.5647 H   0  0  0  0  0  0  0  0  0  0  0  0
   19.7748   19.3104   22.5886 C   0  0  0  0  0  0  0  0  0  0  0  0
   20.6512   19.6611   23.1509 H   0  0  0  0  0  0  0  0  0  0  0  0
   18.9724   20.0416   22.7577 H   0  0  0  0  0  0  0  0  0  0  0  0
   20.1154   19.2578   21.0837 C   0  0  0  0  0  0  0  0  0  0  0  0
   20.9178   18.5267   20.9142 H   0  0  0  0  0  0  0  0  0  0  0  0
   19.2393   18.9071   20.5210 H   0  0  0  0  0  0  0  0  0  0  0  0
   20.5535   20.6368   20.5475 C   0  0  0  0  0  0  0  0  0  0  0  0
   21.4310   20.9900   21.1066 H   0  0  0  0  0  0  0  0  0  0  0  0
   19.7525   21.3705   20.7135 H   0  0  0  0  0  0  0  0  0  0  0  0
   20.8927   20.5800   19.0445 C   0  0  0  0  0  0  0  0  0  0  0  0
   20.0222   20.2596   18.4572 H   0  0  0  0  0  0  0  0  0  0  0  0
   21.7133   19.8761   18.8533 H   0  0  0  0  0  0  0  0  0  0  0  0
   21.2021   21.5683   18.6801 H   0  0  0  0  0  0  0  0  0  0  0  0
  1  2  1  0  0  0  0
  1  3  2  0  0  0  0
  1  4  1  0  0  0  0
  4  5  1  0  0  0  0
  4  6  1  0  0  0  0
  4  7  1  0  0  0  0
  7  8  1  0  0  0  0
  7  9  1  0  0  0  0
  7 10  1  0  0  0  0
 10 11  1  0  0  0  0
 10 12  1  0  0  0  0
 10 13  1  0  0  0  0
 13 14  1  0  0  0  0
 13 15  1  0  0  0  0
 13 16  1  0  0  0  0
 16 17  1  0  0  0  0
 16 18  1  0  0  0  0
 16 19  1  0  0  0  0
 19 20  1  0  0  0  0
 19 21  1  0  0  0  0
 19 22  1  0  0  0  0
M  END
> <VConfSearch Rank>
622

> <Conf_Id>
10

> <Delta U+W>
-1.291

> <U+W>
-54.451

> <U>
5.779

> <W>
-60.230

> <W(PB)>
-62.557

> <W(SA)>
2.328

> <Valence>
7.101

> <Coulomb>
-2.079

> <VdW>
0.757

> <VdW6>
-6.496

> <VdW12>
7.253

> <Bond>
0.100

> <Angle>
2.262

> <Pdih>
4.738

> <Idih>
0.001

> <Tether>
0.000

$$$$
VeraChem MOL file


 22 21  0  0  0  0  0  0  0  0999 V2000     
   20.1260   21.1018   25.4380 C   0  0  0  0  0  0  0  0  0  0  0  0
   19.0367   21.4059   25.8824 O   0  5  0  0  0  0  0  0  0  0  0  0
   21.1274   21.0040   26.1193 O   0  0  0  0  0  0  0  0  0  0  0  0
   20.2381   20.8059   23.9467 C   0  0  0  0  0  0  0  0  0  0  0  0
   21.2380   21.1088   23.6134 H   0  0  0  0  0  0  0  0  0  0  0  0
   19.5148   21.4387   23.4185 H   0  0  0  0  0  0  0  0  0  0  0  0
   19.9910   19.3150   23.6087 C   0  0  0  0  0  0  0  0  0  0  0  0
   20.7143   18.6945   24.1557 H   0  0  0  0  0  0  0  0  0  0  0  0
   18.9911   19.0241   23.9597 H   0  0  0  0  0  0  0  0  0  0  0  0
   20.1100   19.0417   22.0936 C   0  0  0  0  0  0  0  0  0  0  0  0
   21.1110   19.3314   21.7459 H   0  0  0  0  0  0  0  0  0  0  0  0
   19.3886   19.6713   21.5567 H   0  0  0  0  0  0  0  0  0  0  0  0
   19.8588   17.5529   21.7610 C   0  0  0  0  0  0  0  0  0  0  0  0
   20.5407   16.9330   22.3591 H   0  0  0  0  0  0  0  0  0  0  0  0
   18.8398   17.2732   22.0615 H   0  0  0  0  0  0  0  0  0  0  0  0
   20.0691   17.2127   20.2672 C   0  0  0  0  0  0  0  0  0  0  0  0
   19.9878   16.1245   20.1388 H   0  0  0  0  0  0  0  0  0  0  0  0
   21.0896   17.4853   19.9646 H   0  0  0  0  0  0  0  0  0  0  0  0
   19.0492   17.9006   19.3341 C   0  0  0  0  0  0  0  0  0  0  0  0
   19.1840   17.5587   18.2997 H   0  0  0  0  0  0  0  0  0  0  0  0
   19.1711   18.9910   19.3416 H   0  0  0  0  0  0  0  0  0  0  0  0
   18.0201   17.6665   19.6360 H   0  0  0  0  0  0  0  0  0  0  0  0
  1  2  1  0  0  0  0
  1  3  2  0  0  0  0
  1  4  1  0  0  0  0
  4  5  1  0  0  0  0
  4  6  1  0  0  0  0
  4  7  1  0  0  0  0
  7  8  1  0  0  0  0
  7  9  1  0  0  0  0
  7 10  1  0  0  0  0
 10 11  1  0  0  0  0
 10 12  1  0  0  0  0
 10 13  1  0  0  0  0
 13 14  1  0  0  0  0
 13 15  1  0  0  0  0
 13 16  1  0  0  0  0
 16 17  1  0  0  0  0
 16 18  1  0  0  0  0
 16 19  1  0  0  0  0
 19 20  1  0  0  0  0
 19 21  1  0  0  0  0
 19 22  1  0  0  0  0
M  END
> <VConfSearch Rank>
623

> <Conf_Id>
37

> <Delta U+W>
-0.345

> <U+W>
-53.504

> <U>
6.751

> <W>
-60.255

> <W(PB)>
-62.592

> <W(SA)>
2.336

> <Valence>
7.602

> <Coulomb>
-1.744

> <VdW>
0.894

> <VdW6>
-7.110

> <VdW12>
8.004

> <Bond>
0.131

> <Angle>
2.489

> <Pdih>
4.982

> <Idih>
0.001

> <Tether>
0.000

$$$$
VeraChem MOL file


 22 21  0  0  0  0  0  0  0  0999 V2000     
   19.8092   15.7038   24.2760 C   0  0  0  0  0  0  0  0  0  0  0  0
   19.5317   14.7294   23.6051 O   0  5  0  0  0  0  0  0  0  0  0  0
   19.6097   15.7760   25.4724 O   0  0  0  0  0  0  0  0  0  0  0  0
   20.4216   16.9106   23.5741 C   0  0  0  0  0  0  0  0  0  0  0  0
   21.0333   16.5456   22.7403 H   0  0  0  0  0  0  0  0  0  0  0  0
   21.0983   17.4079   24.2793 H   0  0  0  0  0  0  0  0  0  0  0  0
   19.3577   17.9109   23.0586 C   0  0  0  0  0  0  0  0  0  0  0  0
   18.6808   17.3948   22.3635 H   0  0  0  0  0  0  0  0  0  0  0  0
   18.7454   18.2561   23.9032 H   0  0  0  0  0  0  0  0  0  0  0  0
   20.0028   19.1231   22.3524 C   0  0  0  0  0  0  0  0  0  0  0  0
   20.6175   18.7667   21.5156 H   0  0  0  0  0  0  0  0  0  0  0  0
   20.6771   19.6383   23.0502 H   0  0  0  0  0  0  0  0  0  0  0  0
   18.9366   20.1167   21.8363 C   0  0  0  0  0  0  0  0  0  0  0  0
   18.2918   19.6182   21.0997 H   0  0  0  0  0  0  0  0  0  0  0  0
   18.2861   20.4088   22.6720 H   0  0  0  0  0  0  0  0  0  0  0  0
   19.5398   21.3969   21.2131 C   0  0  0  0  0  0  0  0  0  0  0  0
   20.1804   21.9018   21.9493 H   0  0  0  0  0  0  0  0  0  0  0  0
   18.7232   22.0949   20.9822 H   0  0  0  0  0  0  0  0  0  0  0  0
   20.3437   21.1283   19.9224 C   0  0  0  0  0  0  0  0  0  0  0  0
   19.7319   20.5969   19.1819 H   0  0  0  0  0  0  0  0  0  0  0  0
   21.2387   20.5272   20.1256 H   0  0  0  0  0  0  0  0  0  0  0  0
   20.6738   22.0735   19.4723 H   0  0  0  0  0  0  0  0  0  0  0  0
  1  2  1  0  0  0  0
  1  3  2  0  0  0  0
  1  4  1  0  0  0  0
  4  5  1  0  0  0  0
  4  6  1  0  0  0  0
  4  7  1  0  0  0  0
  7  8  1  0  0  0  0
  7  9  1  0  0  0  0
  7 10  1  0  0  0  0
 10 11  1  0  0  0  0
 10 12  1  0  0  0  0
 10 13  1  0  0  0  0
 13 14  1  0  0  0  0
 13 15  1  0  0  0  0
 13 16  1  0  0  0  0
 16 17  1  0  0  0  0
 16 18  1  0  0  0  0
 16 19  1  0  0  0  0
 19 20  1  0  0  0  0
 19 21  1  0  0  0  0
 19 22  1  0  0  0  0
M  END
> <VConfSearch Rank>
624

> <Conf_Id>
38

> <Delta U+W>
-0.439

> <U+W>
-53.598

> <U>
6.751

> <W>
-60.350

> <W(PB)>
-62.659

> <W(SA)>
2.309

> <Valence>
7.602

> <Coulomb>
-1.744

> <VdW>
0.893

> <VdW6>
-7.110

> <VdW12>
8.004

> <Bond>
0.131

> <Angle>
2.489

> <Pdih>
4.981

> <Idih>
0.001

> <Tether>
0.000

$$$$
VeraChem MOL file


 22 21  0  0  0  0  0  0  0  0999 V2000     
   19.3466   19.7137   18.5606 C   0  0  0  0  0  0  0  0  0  0  0  0
   18.8481   18.9189   17.7884 O   0  5  0  0  0  0  0  0  0  0  0  0
   20.0462   20.6435   18.2104 O   0  0  0  0  0  0  0  0  0  0  0  0
   19.0992   19.5203   20.0524 C   0  0  0  0  0  0  0  0  0  0  0  0
   18.1033   19.0786   20.1774 H   0  0  0  0  0  0  0  0  0  0  0  0
   19.0761   20.5124   20.5169 H   0  0  0  0  0  0  0  0  0  0  0  0
   20.1705   18.6239   20.7265 C   0  0  0  0  0  0  0  0  0  0  0  0
   20.2332   17.6762   20.1739 H   0  0  0  0  0  0  0  0  0  0  0  0
   21.1568   19.0999   20.6379 H   0  0  0  0  0  0  0  0  0  0  0  0
   19.8724   18.3105   22.2123 C   0  0  0  0  0  0  0  0  0  0  0  0
   20.6005   17.5640   22.5543 H   0  0  0  0  0  0  0  0  0  0  0  0
   18.8823   17.8426   22.2982 H   0  0  0  0  0  0  0  0  0  0  0  0
   19.9434   19.5558   23.1301 C   0  0  0  0  0  0  0  0  0  0  0  0
   20.9330   20.0247   23.0427 H   0  0  0  0  0  0  0  0  0  0  0  0
   19.2138   20.3020   22.7911 H   0  0  0  0  0  0  0  0  0  0  0  0
   19.6498   19.2413   24.6157 C   0  0  0  0  0  0  0  0  0  0  0  0
   18.6654   18.7616   24.7061 H   0  0  0  0  0  0  0  0  0  0  0  0
   19.5849   20.1884   25.1690 H   0  0  0  0  0  0  0  0  0  0  0  0
   20.7246   18.3534   25.2798 C   0  0  0  0  0  0  0  0  0  0  0  0
   20.7440   17.3487   24.8396 H   0  0  0  0  0  0  0  0  0  0  0  0
   20.5199   18.2412   26.3523 H   0  0  0  0  0  0  0  0  0  0  0  0
   21.7228   18.7970   25.1712 H   0  0  0  0  0  0  0  0  0  0  0  0
  1  2  1  0  0  0  0
  1  3  2  0  0  0  0
  1  4  1  0  0  0  0
  4  5  1  0  0  0  0
  4  6  1  0  0  0  0
  4  7  1  0  0  0  0
  7  8  1  0  0  0  0
  7  9  1  0  0  0  0
  7 10  1  0  0  0  0
 10 11  1  0  0  0  0
 10 12  1  0  0  0  0
 10 13  1  0  0  0  0
 13 14  1  0  0  0  0
 13 15  1  0  0  0  0
 13 16  1  0  0  0  0
 16 17  1  0  0  0  0
 16 18  1  0  0  0  0
 16 19  1  0  0  0  0
 19 20  1  0  0  0  0
 19 21  1  0  0  0  0
 19 22  1  0  0  0  0
M  END
> <VConfSearch Rank>
625

> <Conf_Id>
60

> <Delta U+W>
0.386

> <U+W>
-52.773

> <U>
7.689

> <W>
-60.463

> <W(PB)>
-62.772

> <W(SA)>
2.309

> <Valence>
8.197

> <Coulomb>
-1.561

> <VdW>
1.053

> <VdW6>
-7.737

> <VdW12>
8.790

> <Bond>
0.181

> <Angle>
2.780

> <Pdih>
5.235

> <Idih>
0.001

> <Tether>
0.000

$$$$
VeraChem MOL file


 22 21  0  0  0  0  0  0  0  0999 V2000     
   21.3404   15.9560   20.4689 C   0  0  0  0  0  0  0  0  0  0  0  0
   21.2969   16.1194   19.2655 O   0  5  0  0  0  0  0  0  0  0  0  0
   21.4971   14.8721   20.9953 O   0  0  0  0  0  0  0  0  0  0  0  0
   21.1661   17.1747   21.3681 C   0  0  0  0  0  0  0  0  0  0  0  0
   21.6056   18.0349   20.8511 H   0  0  0  0  0  0  0  0  0  0  0  0
   21.7504   17.0098   22.2812 H   0  0  0  0  0  0  0  0  0  0  0  0
   19.6818   17.4490   21.7250 C   0  0  0  0  0  0  0  0  0  0  0  0
   19.1161   17.6611   20.8072 H   0  0  0  0  0  0  0  0  0  0  0  0
   19.2485   16.5336   22.1513 H   0  0  0  0  0  0  0  0  0  0  0  0
   19.4896   18.6040   22.7368 C   0  0  0  0  0  0  0  0  0  0  0  0
   20.0629   18.3927   23.6497 H   0  0  0  0  0  0  0  0  0  0  0  0
   18.4325   18.6251   23.0308 H   0  0  0  0  0  0  0  0  0  0  0  0
   19.8945   19.9887   22.1740 C   0  0  0  0  0  0  0  0  0  0  0  0
   20.9522   19.9700   21.8825 H   0  0  0  0  0  0  0  0  0  0  0  0
   19.3225   20.1990   21.2601 H   0  0  0  0  0  0  0  0  0  0  0  0
   19.6979   21.1434   23.1841 C   0  0  0  0  0  0  0  0  0  0  0  0
   20.1328   22.0589   22.7599 H   0  0  0  0  0  0  0  0  0  0  0  0
   20.2594   20.9312   24.1044 H   0  0  0  0  0  0  0  0  0  0  0  0
   18.2169   21.4130   23.5283 C   0  0  0  0  0  0  0  0  0  0  0  0
   17.6287   21.5938   22.6192 H   0  0  0  0  0  0  0  0  0  0  0  0
   18.1277   22.2993   24.1699 H   0  0  0  0  0  0  0  0  0  0  0  0
   17.7692   20.5684   24.0665 H   0  0  0  0  0  0  0  0  0  0  0  0
  1  2  1  0  0  0  0
  1  3  2  0  0  0  0
  1  4  1  0  0  0  0
  4  5  1  0  0  0  0
  4  6  1  0  0  0  0
  4  7  1  0  0  0  0
  7  8  1  0  0  0  0
  7  9  1  0  0  0  0
  7 10  1  0  0  0  0
 10 11  1  0  0  0  0
 10 12  1  0  0  0  0
 10 13  1  0  0  0  0
 13 14  1  0  0  0  0
 13 15  1  0  0  0  0
 13 16  1  0  0  0  0
 16 17  1  0  0  0  0
 16 18  1  0  0  0  0
 16 19  1  0  0  0  0
 19 20  1  0  0  0  0
 19 21  1  0  0  0  0
 19 22  1  0  0  0  0
M  END
> <VConfSearch Rank>
626

> <Conf_Id>
28

> <Delta U+W>
0.351

> <U+W>
-52.808

> <U>
7.689

> <W>
-60.498

> <W(PB)>
-62.768

> <W(SA)>
2.270

> <Valence>
8.197

> <Coulomb>
-1.561

> <VdW>
1.053

> <VdW6>
-7.737

> <VdW12>
8.791

> <Bond>
0.181

> <Angle>
2.780

> <Pdih>
5.235

> <Idih>
0.001

> <Tether>
0.000

$$$$
VeraChem MOL file


 22 21  0  0  0  0  0  0  0  0999 V2000     
   19.4837   22.5943   22.5205 C   0  0  0  0  0  0  0  0  0  0  0  0
   18.8208   23.1317   21.6554 O   0  5  0  0  0  0  0  0  0  0  0  0
   19.4038   22.8733   23.7004 O   0  0  0  0  0  0  0  0  0  0  0  0
   20.4549   21.4952   22.1046 C   0  0  0  0  0  0  0  0  0  0  0  0
   21.3116   21.5206   22.7888 H   0  0  0  0  0  0  0  0  0  0  0  0
   20.8323   21.7352   21.1033 H   0  0  0  0  0  0  0  0  0  0  0  0
   19.8089   20.0878   22.1101 C   0  0  0  0  0  0  0  0  0  0  0  0
   19.4217   19.8794   23.1161 H   0  0  0  0  0  0  0  0  0  0  0  0
   18.9480   20.0813   21.4274 H   0  0  0  0  0  0  0  0  0  0  0  0
   20.8166   18.9929   21.6895 C   0  0  0  0  0  0  0  0  0  0  0  0
   21.6518   18.9639   22.4026 H   0  0  0  0  0  0  0  0  0  0  0  0
   21.2485   19.2606   20.7155 H   0  0  0  0  0  0  0  0  0  0  0  0
   20.1849   17.5853   21.5746 C   0  0  0  0  0  0  0  0  0  0  0  0
   19.3521   17.6128   20.8585 H   0  0  0  0  0  0  0  0  0  0  0  0
   20.9340   16.9010   21.1533 H   0  0  0  0  0  0  0  0  0  0  0  0
   19.6919   17.0186   22.9252 C   0  0  0  0  0  0  0  0  0  0  0  0
   18.8858   17.6461   23.3274 H   0  0  0  0  0  0  0  0  0  0  0  0
   20.5110   17.0400   23.6573 H   0  0  0  0  0  0  0  0  0  0  0  0
   19.1753   15.5733   22.7771 C   0  0  0  0  0  0  0  0  0  0  0  0
   19.9685   14.9075   22.4124 H   0  0  0  0  0  0  0  0  0  0  0  0
   18.3366   15.5269   22.0702 H   0  0  0  0  0  0  0  0  0  0  0  0
   18.8262   15.1864   23.7433 H   0  0  0  0  0  0  0  0  0  0  0  0
  1  2  1  0  0  0  0
  1  3  2  0  0  0  0
  1  4  1  0  0  0  0
  4  5  1  0  0  0  0
  4  6  1  0  0  0  0
  4  7  1  0  0  0  0
  7  8  1  0  0  0  0
  7  9  1  0  0  0  0
  7 10  1  0  0  0  0
 10 11  1  0  0  0  0
 10 12  1  0  0  0  0
 10 13  1  0  0  0  0
 13 14  1  0  0  0  0
 13 15  1  0  0  0  0
 13 16  1  0  0  0  0
 16 17  1  0  0  0  0
 16 18  1  0  0  0  0
 16 19  1  0  0  0  0
 19 20  1  0  0  0  0
 19 21  1  0  0  0  0
 19 22  1  0  0  0  0
M  END
> <VConfSearch Rank>
627

> <Conf_Id>
50

> <Delta U+W>
-0.486

> <U+W>
-53.646

> <U>
7.026

> <W>
-60.672

> <W(PB)>
-62.964

> <W(SA)>
2.292

> <Valence>
7.637

> <Coulomb>
-1.488

> <VdW>
0.877

> <VdW6>
-7.165

> <VdW12>
8.043

> <Bond>
0.134

> <Angle>
2.513

> <Pdih>
4.990

> <Idih>
0.001

> <Tether>
0.000

$$$$
VeraChem MOL file


 22 21  0  0  0  0  0  0  0  0999 V2000     
   19.9077   19.3741   18.5444 C   0  0  0  0  0  0  0  0  0  0  0  0
   20.9264   19.8491   18.0830 O   0  5  0  0  0  0  0  0  0  0  0  0
   18.7937   19.6623   18.1539 O   0  0  0  0  0  0  0  0  0  0  0  0
   20.0332   18.3766   19.6904 C   0  0  0  0  0  0  0  0  0  0  0  0
   20.9639   17.8135   19.5513 H   0  0  0  0  0  0  0  0  0  0  0  0
   19.2061   17.6608   19.6113 H   0  0  0  0  0  0  0  0  0  0  0  0
   20.0209   19.0549   21.0825 C   0  0  0  0  0  0  0  0  0  0  0  0
   20.8489   19.7747   21.1425 H   0  0  0  0  0  0  0  0  0  0  0  0
   19.0902   19.6275   21.1897 H   0  0  0  0  0  0  0  0  0  0  0  0
   20.1449   18.0206   22.2253 C   0  0  0  0  0  0  0  0  0  0  0  0
   21.0413   17.4083   22.0567 H   0  0  0  0  0  0  0  0  0  0  0  0
   19.2888   17.3327   22.1974 H   0  0  0  0  0  0  0  0  0  0  0  0
   20.2475   18.6627   23.6292 C   0  0  0  0  0  0  0  0  0  0  0  0
   20.4578   17.8697   24.3599 H   0  0  0  0  0  0  0  0  0  0  0  0
   21.1058   19.3477   23.6588 H   0  0  0  0  0  0  0  0  0  0  0  0
   18.9668   19.4133   24.0590 C   0  0  0  0  0  0  0  0  0  0  0  0
   18.0998   18.7432   23.9789 H   0  0  0  0  0  0  0  0  0  0  0  0
   18.7807   20.2605   23.3859 H   0  0  0  0  0  0  0  0  0  0  0  0
   19.0771   19.9372   25.5050 C   0  0  0  0  0  0  0  0  0  0  0  0
   19.9208   20.6322   25.6073 H   0  0  0  0  0  0  0  0  0  0  0  0
   19.2255   19.1109   26.2125 H   0  0  0  0  0  0  0  0  0  0  0  0
   18.1620   20.4702   25.7941 H   0  0  0  0  0  0  0  0  0  0  0  0
  1  2  1  0  0  0  0
  1  3  2  0  0  0  0
  1  4  1  0  0  0  0
  4  5  1  0  0  0  0
  4  6  1  0  0  0  0
  4  7  1  0  0  0  0
  7  8  1  0  0  0  0
  7  9  1  0  0  0  0
  7 10  1  0  0  0  0
 10 11  1  0  0  0  0
 10 12  1  0  0  0  0
 10 13  1  0  0  0  0
 13 14  1  0  0  0  0
 13 15  1  0  0  0  0
 13 16  1  0  0  0  0
 16 17  1  0  0  0  0
 16 18  1  0  0  0  0
 16 19  1  0  0  0  0
 19 20  1  0  0  0  0
 19 21  1  0  0  0  0
 19 22  1  0  0  0  0
M  END
> <VConfSearch Rank>
628

> <Conf_Id>
51

> <Delta U+W>
-0.517

> <U+W>
-53.677

> <U>
7.026

> <W>
-60.703

> <W(PB)>
-63.007

> <W(SA)>
2.304

> <Valence>
7.638

> <Coulomb>
-1.488

> <VdW>
0.877

> <VdW6>
-7.165

> <VdW12>
8.042

> <Bond>
0.134

> <Angle>
2.513

> <Pdih>
4.990

> <Idih>
0.001

> <Tether>
0.000

$$$$
VeraChem MOL file


 22 21  0  0  0  0  0  0  0  0999 V2000     
   18.4555   20.3649   19.6194 C   0  0  0  0  0  0  0  0  0  0  0  0
   17.2946   20.0345   19.4780 O   0  5  0  0  0  0  0  0  0  0  0  0
   18.8087   21.5099   19.8224 O   0  0  0  0  0  0  0  0  0  0  0  0
   19.5282   19.2842   19.5174 C   0  0  0  0  0  0  0  0  0  0  0  0
   20.4937   19.7664   19.3217 H   0  0  0  0  0  0  0  0  0  0  0  0
   19.2948   18.6725   18.6380 H   0  0  0  0  0  0  0  0  0  0  0  0
   19.6280   18.3744   20.7694 C   0  0  0  0  0  0  0  0  0  0  0  0
   18.6471   17.9210   20.9689 H   0  0  0  0  0  0  0  0  0  0  0  0
   20.3203   17.5488   20.5557 H   0  0  0  0  0  0  0  0  0  0  0  0
   20.1163   19.1375   22.0211 C   0  0  0  0  0  0  0  0  0  0  0  0
   19.4192   19.9550   22.2515 H   0  0  0  0  0  0  0  0  0  0  0  0
   21.0909   19.5997   21.8121 H   0  0  0  0  0  0  0  0  0  0  0  0
   20.2384   18.2067   23.2467 C   0  0  0  0  0  0  0  0  0  0  0  0
   19.2634   17.7450   23.4550 H   0  0  0  0  0  0  0  0  0  0  0  0
   20.9373   17.3900   23.0197 H   0  0  0  0  0  0  0  0  0  0  0  0
   20.7252   18.9683   24.4973 C   0  0  0  0  0  0  0  0  0  0  0  0
   20.0275   19.7851   24.7285 H   0  0  0  0  0  0  0  0  0  0  0  0
   21.7011   19.4302   24.2932 H   0  0  0  0  0  0  0  0  0  0  0  0
   20.8452   18.0357   25.7193 C   0  0  0  0  0  0  0  0  0  0  0  0
   19.8753   17.5839   25.9654 H   0  0  0  0  0  0  0  0  0  0  0  0
   21.1923   18.5934   26.5989 H   0  0  0  0  0  0  0  0  0  0  0  0
   21.5616   17.2263   25.5268 H   0  0  0  0  0  0  0  0  0  0  0  0
  1  2  1  0  0  0  0
  1  3  2  0  0  0  0
  1  4  1  0  0  0  0
  4  5  1  0  0  0  0
  4  6  1  0  0  0  0
  4  7  1  0  0  0  0
  7  8  1  0  0  0  0
  7  9  1  0  0  0  0
  7 10  1  0  0  0  0
 10 11  1  0  0  0  0
 10 12  1  0  0  0  0
 10 13  1  0  0  0  0
 13 14  1  0  0  0  0
 13 15  1  0  0  0  0
 13 16  1  0  0  0  0
 16 17  1  0  0  0  0
 16 18  1  0  0  0  0
 16 19  1  0  0  0  0
 19 20  1  0  0  0  0
 19 21  1  0  0  0  0
 19 22  1  0  0  0  0
M  END
> <VConfSearch Rank>
629

> <Conf_Id>
43

> <Delta U+W>
-0.129

> <U+W>
-53.289

> <U>
7.937

> <W>
-61.225

> <W(PB)>
-63.523

> <W(SA)>
2.297

> <Valence>
7.358

> <Coulomb>
-0.022

> <VdW>
0.601

> <VdW6>
-7.363

> <VdW12>
7.964

> <Bond>
0.121

> <Angle>
2.425

> <Pdih>
4.811

> <Idih>
0.000

> <Tether>
0.000

$$$$
VeraChem MOL file


 22 21  0  0  0  0  0  0  0  0999 V2000     
   20.0592   15.7756   23.3554 C   0  0  0  0  0  0  0  0  0  0  0  0
   19.0492   15.1168   23.2043 O   0  5  0  0  0  0  0  0  0  0  0  0
   20.5764   15.9749   24.4368 O   0  0  0  0  0  0  0  0  0  0  0  0
   20.7229   16.3687   22.1157 C   0  0  0  0  0  0  0  0  0  0  0  0
   20.7594   15.5805   21.3544 H   0  0  0  0  0  0  0  0  0  0  0  0
   21.7615   16.6212   22.3613 H   0  0  0  0  0  0  0  0  0  0  0  0
   19.9915   17.6098   21.5414 C   0  0  0  0  0  0  0  0  0  0  0  0
   20.4524   17.8831   20.5826 H   0  0  0  0  0  0  0  0  0  0  0  0
   18.9457   17.3490   21.3268 H   0  0  0  0  0  0  0  0  0  0  0  0
   20.0427   18.8241   22.4957 C   0  0  0  0  0  0  0  0  0  0  0  0
   21.0897   19.0725   22.7175 H   0  0  0  0  0  0  0  0  0  0  0  0
   19.5679   18.5637   23.4518 H   0  0  0  0  0  0  0  0  0  0  0  0
   19.3364   20.0566   21.8910 C   0  0  0  0  0  0  0  0  0  0  0  0
   19.8113   20.3207   20.9362 H   0  0  0  0  0  0  0  0  0  0  0  0
   18.2896   19.8074   21.6696 H   0  0  0  0  0  0  0  0  0  0  0  0
   19.3865   21.2694   22.8438 C   0  0  0  0  0  0  0  0  0  0  0  0
   20.4324   21.5227   23.0663 H   0  0  0  0  0  0  0  0  0  0  0  0
   18.9107   21.0095   23.7995 H   0  0  0  0  0  0  0  0  0  0  0  0
   18.6797   22.4980   22.2369 C   0  0  0  0  0  0  0  0  0  0  0  0
   19.1558   22.7994   21.2946 H   0  0  0  0  0  0  0  0  0  0  0  0
   18.7248   23.3504   22.9272 H   0  0  0  0  0  0  0  0  0  0  0  0
   17.6226   22.2823   22.0334 H   0  0  0  0  0  0  0  0  0  0  0  0
  1  2  1  0  0  0  0
  1  3  2  0  0  0  0
  1  4  1  0  0  0  0
  4  5  1  0  0  0  0
  4  6  1  0  0  0  0
  4  7  1  0  0  0  0
  7  8  1  0  0  0  0
  7  9  1  0  0  0  0
  7 10  1  0  0  0  0
 10 11  1  0  0  0  0
 10 12  1  0  0  0  0
 10 13  1  0  0  0  0
 13 14  1  0  0  0  0
 13 15  1  0  0  0  0
 13 16  1  0  0  0  0
 16 17  1  0  0  0  0
 16 18  1  0  0  0  0
 16 19  1  0  0  0  0
 19 20  1  0  0  0  0
 19 21  1  0  0  0  0
 19 22  1  0  0  0  0
M  END
> <VConfSearch Rank>
630

> <Conf_Id>
44

> <Delta U+W>
-0.155

> <U+W>
-53.314

> <U>
7.937

> <W>
-61.252

> <W(PB)>
-63.556

> <W(SA)>
2.304

> <Valence>
7.358

> <Coulomb>
-0.021

> <VdW>
0.600

> <VdW6>
-7.363

> <VdW12>
7.964

> <Bond>
0.121

> <Angle>
2.425

> <Pdih>
4.811

> <Idih>
0.001

> <Tether>
0.000

$$$$
VeraChem MOL file


 22 21  0  0  0  0  0  0  0  0999 V2000     
   23.0200   18.4548   21.0999 C   0  0  0  0  0  0  0  0  0  0  0  0
   23.8168   18.3459   22.0110 O   0  5  0  0  0  0  0  0  0  0  0  0
   23.1876   19.1865   20.1441 O   0  0  0  0  0  0  0  0  0  0  0  0
   21.7490   17.6115   21.1513 C   0  0  0  0  0  0  0  0  0  0  0  0
   22.0441   16.5918   21.4255 H   0  0  0  0  0  0  0  0  0  0  0  0
   21.3226   17.5579   20.1423 H   0  0  0  0  0  0  0  0  0  0  0  0
   20.6860   18.1298   22.1548 C   0  0  0  0  0  0  0  0  0  0  0  0
   19.8877   17.3809   22.2327 H   0  0  0  0  0  0  0  0  0  0  0  0
   21.1389   18.2163   23.1522 H   0  0  0  0  0  0  0  0  0  0  0  0
   20.0842   19.4915   21.7318 C   0  0  0  0  0  0  0  0  0  0  0  0
   19.5950   19.3926   20.7532 H   0  0  0  0  0  0  0  0  0  0  0  0
   20.8968   20.2189   21.5989 H   0  0  0  0  0  0  0  0  0  0  0  0
   19.0797   20.0673   22.7580 C   0  0  0  0  0  0  0  0  0  0  0  0
   19.5693   20.1658   23.7365 H   0  0  0  0  0  0  0  0  0  0  0  0
   18.8068   21.0841   22.4439 H   0  0  0  0  0  0  0  0  0  0  0  0
   17.7919   19.2251   22.9017 C   0  0  0  0  0  0  0  0  0  0  0  0
   18.0331   18.2279   23.2924 H   0  0  0  0  0  0  0  0  0  0  0  0
   17.3315   19.0806   21.9146 H   0  0  0  0  0  0  0  0  0  0  0  0
   16.7771   19.9008   23.8458 C   0  0  0  0  0  0  0  0  0  0  0  0
   17.2026   20.0331   24.8493 H   0  0  0  0  0  0  0  0  0  0  0  0
   15.8702   19.2895   23.9401 H   0  0  0  0  0  0  0  0  0  0  0  0
   16.4824   20.8876   23.4653 H   0  0  0  0  0  0  0  0  0  0  0  0
  1  2  1  0  0  0  0
  1  3  2  0  0  0  0
  1  4  1  0  0  0  0
  4  5  1  0  0  0  0
  4  6  1  0  0  0  0
  4  7  1  0  0  0  0
  7  8  1  0  0  0  0
  7  9  1  0  0  0  0
  7 10  1  0  0  0  0
 10 11  1  0  0  0  0
 10 12  1  0  0  0  0
 10 13  1  0  0  0  0
 13 14  1  0  0  0  0
 13 15  1  0  0  0  0
 13 16  1  0  0  0  0
 16 17  1  0  0  0  0
 16 18  1  0  0  0  0
 16 19  1  0  0  0  0
 19 20  1  0  0  0  0
 19 21  1  0  0  0  0
 19 22  1  0  0  0  0
M  END
> <VConfSearch Rank>
631

> <Conf_Id>
53

> <Delta U+W>
0.723

> <U+W>
-52.436

> <U>
8.587

> <W>
-61.022

> <W(PB)>
-63.285

> <W(SA)>
2.263

> <Valence>
7.933

> <Coulomb>
-0.124

> <VdW>
0.778

> <VdW6>
-7.981

> <VdW12>
8.759

> <Bond>
0.160

> <Angle>
2.698

> <Pdih>
5.074

> <Idih>
0.001

> <Tether>
0.000

$$$$
VeraChem MOL file


 22 21  0  0  0  0  0  0  0  0999 V2000     
   18.7105   17.2533   25.0071 C   0  0  0  0  0  0  0  0  0  0  0  0
   17.6331   17.6885   25.3630 O   0  5  0  0  0  0  0  0  0  0  0  0
   19.2474   16.2889   25.5153 O   0  0  0  0  0  0  0  0  0  0  0  0
   19.4172   17.9413   23.8447 C   0  0  0  0  0  0  0  0  0  0  0  0
   20.4985   17.8371   23.9932 H   0  0  0  0  0  0  0  0  0  0  0  0
   19.1776   19.0093   23.8969 H   0  0  0  0  0  0  0  0  0  0  0  0
   19.0069   17.3641   22.4665 C   0  0  0  0  0  0  0  0  0  0  0  0
   19.1297   16.2724   22.4915 H   0  0  0  0  0  0  0  0  0  0  0  0
   17.9365   17.5491   22.3015 H   0  0  0  0  0  0  0  0  0  0  0  0
   19.8207   17.9226   21.2721 C   0  0  0  0  0  0  0  0  0  0  0  0
   19.4740   17.4069   20.3661 H   0  0  0  0  0  0  0  0  0  0  0  0
   20.8809   17.6555   21.3799 H   0  0  0  0  0  0  0  0  0  0  0  0
   19.6709   19.4484   21.0459 C   0  0  0  0  0  0  0  0  0  0  0  0
   19.6750   19.6419   19.9645 H   0  0  0  0  0  0  0  0  0  0  0  0
   18.6938   19.7904   21.4136 H   0  0  0  0  0  0  0  0  0  0  0  0
   20.8080   20.2776   21.6864 C   0  0  0  0  0  0  0  0  0  0  0  0
   21.7733   19.9634   21.2664 H   0  0  0  0  0  0  0  0  0  0  0  0
   20.8604   20.0924   22.7659 H   0  0  0  0  0  0  0  0  0  0  0  0
   20.6139   21.7874   21.4409 C   0  0  0  0  0  0  0  0  0  0  0  0
   20.5979   22.0121   20.3664 H   0  0  0  0  0  0  0  0  0  0  0  0
   21.4319   22.3615   21.8952 H   0  0  0  0  0  0  0  0  0  0  0  0
   19.6700   22.1377   21.8788 H   0  0  0  0  0  0  0  0  0  0  0  0
  1  2  1  0  0  0  0
  1  3  2  0  0  0  0
  1  4  1  0  0  0  0
  4  5  1  0  0  0  0
  4  6  1  0  0  0  0
  4  7  1  0  0  0  0
  7  8  1  0  0  0  0
  7  9  1  0  0  0  0
  7 10  1  0  0  0  0
 10 11  1  0  0  0  0
 10 12  1  0  0  0  0
 10 13  1  0  0  0  0
 13 14  1  0  0  0  0
 13 15  1  0  0  0  0
 13 16  1  0  0  0  0
 16 17  1  0  0  0  0
 16 18  1  0  0  0  0
 16 19  1  0  0  0  0
 19 20  1  0  0  0  0
 19 21  1  0  0  0  0
 19 22  1  0  0  0  0
M  END
> <VConfSearch Rank>
632

> <Conf_Id>
5

> <Delta U+W>
2.167

> <U+W>
-50.993

> <U>
10.045

> <W>
-61.037

> <W(PB)>
-63.303

> <W(SA)>
2.266

> <Valence>
10.100

> <Coulomb>
-0.883

> <VdW>
0.828

> <VdW6>
-8.177

> <VdW12>
9.005

> <Bond>
0.182

> <Angle>
2.988

> <Pdih>
6.930

> <Idih>
0.001

> <Tether>
0.000

$$$$
VeraChem MOL file


 22 21  0  0  0  0  0  0  0  0999 V2000     
   17.4764   18.1124   20.1550 C   0  0  0  0  0  0  0  0  0  0  0  0
   17.0551   17.0019   20.4119 O   0  5  0  0  0  0  0  0  0  0  0  0
   17.1137   18.7641   19.1957 O   0  0  0  0  0  0  0  0  0  0  0  0
   18.5349   18.7118   21.0738 C   0  0  0  0  0  0  0  0  0  0  0  0
   18.3307   18.3569   22.0902 H   0  0  0  0  0  0  0  0  0  0  0  0
   18.4104   19.8012   21.0724 H   0  0  0  0  0  0  0  0  0  0  0  0
   19.9780   18.3364   20.6522 C   0  0  0  0  0  0  0  0  0  0  0  0
   20.1076   17.2486   20.7367 H   0  0  0  0  0  0  0  0  0  0  0  0
   20.1084   18.5795   19.5886 H   0  0  0  0  0  0  0  0  0  0  0  0
   21.0872   19.0558   21.4601 C   0  0  0  0  0  0  0  0  0  0  0  0
   21.0258   20.1412   21.3017 H   0  0  0  0  0  0  0  0  0  0  0  0
   22.0545   18.7475   21.0403 H   0  0  0  0  0  0  0  0  0  0  0  0
   21.0944   18.7332   22.9759 C   0  0  0  0  0  0  0  0  0  0  0  0
   20.6752   17.7330   23.1510 H   0  0  0  0  0  0  0  0  0  0  0  0
   22.1377   18.6912   23.3178 H   0  0  0  0  0  0  0  0  0  0  0  0
   20.3512   19.7861   23.8303 C   0  0  0  0  0  0  0  0  0  0  0  0
   19.3091   19.8834   23.5031 H   0  0  0  0  0  0  0  0  0  0  0  0
   20.8183   20.7704   23.6885 H   0  0  0  0  0  0  0  0  0  0  0  0
   20.3794   19.4208   25.3280 C   0  0  0  0  0  0  0  0  0  0  0  0
   19.8897   18.4543   25.5052 H   0  0  0  0  0  0  0  0  0  0  0  0
   19.8545   20.1806   25.9214 H   0  0  0  0  0  0  0  0  0  0  0  0
   21.4113   19.3553   25.6973 H   0  0  0  0  0  0  0  0  0  0  0  0
  1  2  1  0  0  0  0
  1  3  2  0  0  0  0
  1  4  1  0  0  0  0
  4  5  1  0  0  0  0
  4  6  1  0  0  0  0
  4  7  1  0  0  0  0
  7  8  1  0  0  0  0
  7  9  1  0  0  0  0
  7 10  1  0  0  0  0
 10 11  1  0  0  0  0
 10 12  1  0  0  0  0
 10 13  1  0  0  0  0
 13 14  1  0  0  0  0
 13 15  1  0  0  0  0
 13 16  1  0  0  0  0
 16 17  1  0  0  0  0
 16 18  1  0  0  0  0
 16 19  1  0  0  0  0
 19 20  1  0  0  0  0
 19 21  1  0  0  0  0
 19 22  1  0  0  0  0
M  END
> <VConfSearch Rank>
633

> <Conf_Id>
6

> <Delta U+W>
2.118

> <U+W>
-51.042

> <U>
10.045

> <W>
-61.086

> <W(PB)>
-63.356

> <W(SA)>
2.270

> <Valence>
10.100

> <Coulomb>
-0.883

> <VdW>
0.828

> <VdW6>
-8.177

> <VdW12>
9.004

> <Bond>
0.182

> <Angle>
2.988

> <Pdih>
6.930

> <Idih>
0.001

> <Tether>
0.000

$$$$
VeraChem MOL file


 22 21  0  0  0  0  0  0  0  0999 V2000     
   18.3884   20.0898   20.4793 C   0  0  0  0  0  0  0  0  0  0  0  0
   19.2243   20.7454   19.8885 O   0  5  0  0  0  0  0  0  0  0  0  0
   17.4713   20.5820   21.1066 O   0  0  0  0  0  0  0  0  0  0  0  0
   18.4510   18.5674   20.3704 C   0  0  0  0  0  0  0  0  0  0  0  0
   18.3019   18.3279   19.3112 H   0  0  0  0  0  0  0  0  0  0  0  0
   17.6008   18.1359   20.9123 H   0  0  0  0  0  0  0  0  0  0  0  0
   19.7805   17.9215   20.8524 C   0  0  0  0  0  0  0  0  0  0  0  0
   19.8562   16.9237   20.3996 H   0  0  0  0  0  0  0  0  0  0  0  0
   20.6362   18.4936   20.4673 H   0  0  0  0  0  0  0  0  0  0  0  0
   19.9018   17.7531   22.3873 C   0  0  0  0  0  0  0  0  0  0  0  0
   20.7982   17.1529   22.5954 H   0  0  0  0  0  0  0  0  0  0  0  0
   19.0481   17.1735   22.7642 H   0  0  0  0  0  0  0  0  0  0  0  0
   20.0067   19.0866   23.1614 C   0  0  0  0  0  0  0  0  0  0  0  0
   20.7948   19.7101   22.7173 H   0  0  0  0  0  0  0  0  0  0  0  0
   19.0664   19.6450   23.0718 H   0  0  0  0  0  0  0  0  0  0  0  0
   20.3110   18.8558   24.6567 C   0  0  0  0  0  0  0  0  0  0  0  0
   21.2557   18.3047   24.7628 H   0  0  0  0  0  0  0  0  0  0  0  0
   19.5245   18.2307   25.1019 H   0  0  0  0  0  0  0  0  0  0  0  0
   20.4061   20.1870   25.4289 C   0  0  0  0  0  0  0  0  0  0  0  0
   21.2068   20.8194   25.0236 H   0  0  0  0  0  0  0  0  0  0  0  0
   20.6216   20.0048   26.4897 H   0  0  0  0  0  0  0  0  0  0  0  0
   19.4630   20.7456   25.3653 H   0  0  0  0  0  0  0  0  0  0  0  0
  1  2  1  0  0  0  0
  1  3  2  0  0  0  0
  1  4  1  0  0  0  0
  4  5  1  0  0  0  0
  4  6  1  0  0  0  0
  4  7  1  0  0  0  0
  7  8  1  0  0  0  0
  7  9  1  0  0  0  0
  7 10  1  0  0  0  0
 10 11  1  0  0  0  0
 10 12  1  0  0  0  0
 10 13  1  0  0  0  0
 13 14  1  0  0  0  0
 13 15  1  0  0  0  0
 13 16  1  0  0  0  0
 16 17  1  0  0  0  0
 16 18  1  0  0  0  0
 16 19  1  0  0  0  0
 19 20  1  0  0  0  0
 19 21  1  0  0  0  0
 19 22  1  0  0  0  0
M  END
> <VConfSearch Rank>
634

> <Conf_Id>
8

> <Delta U+W>
1.886

> <U+W>
-51.274

> <U>
11.237

> <W>
-62.510

> <W(PB)>
-64.777

> <W(SA)>
2.267

> <Valence>
9.029

> <Coulomb>
1.667

> <VdW>
0.540

> <VdW6>
-8.825

> <VdW12>
9.365

> <Bond>
0.186

> <Angle>
3.195

> <Pdih>
5.642

> <Idih>
0.007

> <Tether>
0.000

$$$$
VeraChem MOL file


 22 21  0  0  0  0  0  0  0  0999 V2000     
   19.5468   15.8709   22.1566 C   0  0  0  0  0  0  0  0  0  0  0  0
   19.3427   16.0034   20.9659 O   0  5  0  0  0  0  0  0  0  0  0  0
   18.9063   15.1230   22.8691 O   0  0  0  0  0  0  0  0  0  0  0  0
   20.6883   16.6632   22.7878 C   0  0  0  0  0  0  0  0  0  0  0  0
   21.3270   17.0564   21.9889 H   0  0  0  0  0  0  0  0  0  0  0  0
   21.3031   15.9533   23.3534 H   0  0  0  0  0  0  0  0  0  0  0  0
   20.2232   17.8049   23.7329 C   0  0  0  0  0  0  0  0  0  0  0  0
   19.6541   17.3631   24.5625 H   0  0  0  0  0  0  0  0  0  0  0  0
   21.1042   18.2808   24.1841 H   0  0  0  0  0  0  0  0  0  0  0  0
   19.3501   18.8889   23.0537 C   0  0  0  0  0  0  0  0  0  0  0  0
   19.0062   19.5825   23.8314 H   0  0  0  0  0  0  0  0  0  0  0  0
   18.4480   18.4269   22.6299 H   0  0  0  0  0  0  0  0  0  0  0  0
   20.0959   19.6790   21.9506 C   0  0  0  0  0  0  0  0  0  0  0  0
   21.0091   20.1263   22.3658 H   0  0  0  0  0  0  0  0  0  0  0  0
   20.4163   18.9857   21.1622 H   0  0  0  0  0  0  0  0  0  0  0  0
   19.2318   20.7807   21.2934 C   0  0  0  0  0  0  0  0  0  0  0  0
   18.3102   20.3380   20.8909 H   0  0  0  0  0  0  0  0  0  0  0  0
   19.7798   21.1904   20.4338 H   0  0  0  0  0  0  0  0  0  0  0  0
   18.8786   21.9386   22.2522 C   0  0  0  0  0  0  0  0  0  0  0  0
   18.2260   21.6011   23.0668 H   0  0  0  0  0  0  0  0  0  0  0  0
   18.3500   22.7351   21.7127 H   0  0  0  0  0  0  0  0  0  0  0  0
   19.7847   22.3736   22.6936 H   0  0  0  0  0  0  0  0  0  0  0  0
  1  2  1  0  0  0  0
  1  3  2  0  0  0  0
  1  4  1  0  0  0  0
  4  5  1  0  0  0  0
  4  6  1  0  0  0  0
  4  7  1  0  0  0  0
  7  8  1  0  0  0  0
  7  9  1  0  0  0  0
  7 10  1  0  0  0  0
 10 11  1  0  0  0  0
 10 12  1  0  0  0  0
 10 13  1  0  0  0  0
 13 14  1  0  0  0  0
 13 15  1  0  0  0  0
 13 16  1  0  0  0  0
 16 17  1  0  0  0  0
 16 18  1  0  0  0  0
 16 19  1  0  0  0  0
 19 20  1  0  0  0  0
 19 21  1  0  0  0  0
 19 22  1  0  0  0  0
M  END
> <VConfSearch Rank>
635

> <Conf_Id>
93

> <Delta U+W>
1.836

> <U+W>
-51.323

> <U>
10.427

> <W>
-61.751

> <W(PB)>
-63.980

> <W(SA)>
2.230

> <Valence>
8.446

> <Coulomb>
1.306

> <VdW>
0.676

> <VdW6>
-8.928

> <VdW12>
9.604

> <Bond>
0.209

> <Angle>
3.066

> <Pdih>
5.170

> <Idih>
0.001

> <Tether>
0.000

$$$$
VeraChem MOL file


 22 21  0  0  0  0  0  0  0  0999 V2000     
   22.7205   18.4714   22.1664 C   0  0  0  0  0  0  0  0  0  0  0  0
   23.4044   18.7153   21.1917 O   0  5  0  0  0  0  0  0  0  0  0  0
   22.5071   17.3462   22.5730 O   0  0  0  0  0  0  0  0  0  0  0  0
   22.1230   19.6451   22.9375 C   0  0  0  0  0  0  0  0  0  0  0  0
   22.9359   20.3545   23.1313 H   0  0  0  0  0  0  0  0  0  0  0  0
   21.7858   19.2871   23.9167 H   0  0  0  0  0  0  0  0  0  0  0  0
   20.9722   20.3754   22.1923 C   0  0  0  0  0  0  0  0  0  0  0  0
   20.6434   21.2353   22.7913 H   0  0  0  0  0  0  0  0  0  0  0  0
   21.3684   20.7882   21.2542 H   0  0  0  0  0  0  0  0  0  0  0  0
   19.7483   19.4846   21.8648 C   0  0  0  0  0  0  0  0  0  0  0  0
   20.0617   18.6404   21.2355 H   0  0  0  0  0  0  0  0  0  0  0  0
   19.0499   20.0779   21.2612 H   0  0  0  0  0  0  0  0  0  0  0  0
   19.0195   18.9519   23.1228 C   0  0  0  0  0  0  0  0  0  0  0  0
   19.7140   18.3382   23.7111 H   0  0  0  0  0  0  0  0  0  0  0  0
   18.7219   19.7922   23.7645 H   0  0  0  0  0  0  0  0  0  0  0  0
   17.7804   18.0866   22.7945 C   0  0  0  0  0  0  0  0  0  0  0  0
   17.4118   17.6339   23.7253 H   0  0  0  0  0  0  0  0  0  0  0  0
   18.0728   17.2539   22.1397 H   0  0  0  0  0  0  0  0  0  0  0  0
   16.6295   18.8833   22.1424 C   0  0  0  0  0  0  0  0  0  0  0  0
   16.9102   19.2550   21.1492 H   0  0  0  0  0  0  0  0  0  0  0  0
   16.3443   19.7418   22.7642 H   0  0  0  0  0  0  0  0  0  0  0  0
   15.7440   18.2464   22.0195 H   0  0  0  0  0  0  0  0  0  0  0  0
  1  2  1  0  0  0  0
  1  3  2  0  0  0  0
  1  4  1  0  0  0  0
  4  5  1  0  0  0  0
  4  6  1  0  0  0  0
  4  7  1  0  0  0  0
  7  8  1  0  0  0  0
  7  9  1  0  0  0  0
  7 10  1  0  0  0  0
 10 11  1  0  0  0  0
 10 12  1  0  0  0  0
 10 13  1  0  0  0  0
 13 14  1  0  0  0  0
 13 15  1  0  0  0  0
 13 16  1  0  0  0  0
 16 17  1  0  0  0  0
 16 18  1  0  0  0  0
 16 19  1  0  0  0  0
 19 20  1  0  0  0  0
 19 21  1  0  0  0  0
 19 22  1  0  0  0  0
M  END
> <VConfSearch Rank>
636

> <Conf_Id>
70

> <Delta U+W>
1.803

> <U+W>
-51.356

> <U>
10.428

> <W>
-61.784

> <W(PB)>
-64.014

> <W(SA)>
2.230

> <Valence>
8.445

> <Coulomb>
1.306

> <VdW>
0.676

> <VdW6>
-8.929

> <VdW12>
9.605

> <Bond>
0.209

> <Angle>
3.066

> <Pdih>
5.170

> <Idih>
0.001

> <Tether>
0.000

$$$$
VeraChem MOL file


 22 21  0  0  0  0  0  0  0  0999 V2000     
   18.5703   15.9707   21.6673 C   0  0  0  0  0  0  0  0  0  0  0  0
   17.3905   16.0206   21.9549 O   0  5  0  0  0  0  0  0  0  0  0  0
   19.3430   15.1588   22.1369 O   0  0  0  0  0  0  0  0  0  0  0  0
   19.1038   16.9699   20.6446 C   0  0  0  0  0  0  0  0  0  0  0  0
   18.3881   17.0044   19.8148 H   0  0  0  0  0  0  0  0  0  0  0  0
   20.0452   16.5834   20.2356 H   0  0  0  0  0  0  0  0  0  0  0  0
   19.3111   18.3992   21.2095 C   0  0  0  0  0  0  0  0  0  0  0  0
   19.5678   19.0757   20.3833 H   0  0  0  0  0  0  0  0  0  0  0  0
   18.3617   18.7564   21.6298 H   0  0  0  0  0  0  0  0  0  0  0  0
   20.4258   18.4560   22.2814 C   0  0  0  0  0  0  0  0  0  0  0  0
   21.3420   18.0134   21.8672 H   0  0  0  0  0  0  0  0  0  0  0  0
   20.1458   17.8359   23.1442 H   0  0  0  0  0  0  0  0  0  0  0  0
   20.7468   19.8914   22.7609 C   0  0  0  0  0  0  0  0  0  0  0  0
   21.6240   19.8497   23.4210 H   0  0  0  0  0  0  0  0  0  0  0  0
   21.0346   20.5114   21.9008 H   0  0  0  0  0  0  0  0  0  0  0  0
   19.5797   20.5623   23.5197 C   0  0  0  0  0  0  0  0  0  0  0  0
   19.2569   19.9169   24.3483 H   0  0  0  0  0  0  0  0  0  0  0  0
   18.7157   20.6845   22.8534 H   0  0  0  0  0  0  0  0  0  0  0  0
   19.9849   21.9431   24.0738 C   0  0  0  0  0  0  0  0  0  0  0  0
   20.8242   21.8542   24.7760 H   0  0  0  0  0  0  0  0  0  0  0  0
   19.1451   22.4075   24.6068 H   0  0  0  0  0  0  0  0  0  0  0  0
   20.2865   22.6184   23.2624 H   0  0  0  0  0  0  0  0  0  0  0  0
  1  2  1  0  0  0  0
  1  3  2  0  0  0  0
  1  4  1  0  0  0  0
  4  5  1  0  0  0  0
  4  6  1  0  0  0  0
  4  7  1  0  0  0  0
  7  8  1  0  0  0  0
  7  9  1  0  0  0  0
  7 10  1  0  0  0  0
 10 11  1  0  0  0  0
 10 12  1  0  0  0  0
 10 13  1  0  0  0  0
 13 14  1  0  0  0  0
 13 15  1  0  0  0  0
 13 16  1  0  0  0  0
 16 17  1  0  0  0  0
 16 18  1  0  0  0  0
 16 19  1  0  0  0  0
 19 20  1  0  0  0  0
 19 21  1  0  0  0  0
 19 22  1  0  0  0  0
M  END
> <VConfSearch Rank>
637

> <Conf_Id>
85

> <Delta U+W>
0.707

> <U+W>
-52.452

> <U>
8.925

> <W>
-61.378

> <W(PB)>
-63.661

> <W(SA)>
2.283

> <Valence>
7.881

> <Coulomb>
0.349

> <VdW>
0.695

> <VdW6>
-8.049

> <VdW12>
8.743

> <Bond>
0.156

> <Angle>
2.660

> <Pdih>
5.064

> <Idih>
0.001

> <Tether>
0.000

$$$$
VeraChem MOL file


 22 21  0  0  0  0  0  0  0  0999 V2000     
   16.6914   19.6223   21.6626 C   0  0  0  0  0  0  0  0  0  0  0  0
   16.3526   20.6983   22.1149 O   0  5  0  0  0  0  0  0  0  0  0  0
   16.4677   19.2730   20.5203 O   0  0  0  0  0  0  0  0  0  0  0  0
   17.4170   18.6461   22.5845 C   0  0  0  0  0  0  0  0  0  0  0  0
   16.9485   17.6636   22.4535 H   0  0  0  0  0  0  0  0  0  0  0  0
   17.2389   18.9466   23.6241 H   0  0  0  0  0  0  0  0  0  0  0  0
   18.9399   18.5325   22.3133 C   0  0  0  0  0  0  0  0  0  0  0  0
   19.3362   17.7021   22.9112 H   0  0  0  0  0  0  0  0  0  0  0  0
   19.1048   18.2772   21.2574 H   0  0  0  0  0  0  0  0  0  0  0  0
   19.7057   19.8283   22.6674 C   0  0  0  0  0  0  0  0  0  0  0  0
   19.6058   20.0289   23.7428 H   0  0  0  0  0  0  0  0  0  0  0  0
   19.2357   20.6773   22.1525 H   0  0  0  0  0  0  0  0  0  0  0  0
   21.2069   19.8049   22.2849 C   0  0  0  0  0  0  0  0  0  0  0  0
   21.3166   19.6978   21.1970 H   0  0  0  0  0  0  0  0  0  0  0  0
   21.6252   20.7906   22.5308 H   0  0  0  0  0  0  0  0  0  0  0  0
   22.0469   18.7291   23.0175 C   0  0  0  0  0  0  0  0  0  0  0  0
   21.5994   18.4951   23.9934 H   0  0  0  0  0  0  0  0  0  0  0  0
   23.0416   19.1447   23.2298 H   0  0  0  0  0  0  0  0  0  0  0  0
   22.2364   17.4375   22.1912 C   0  0  0  0  0  0  0  0  0  0  0  0
   21.2791   16.9593   21.9552 H   0  0  0  0  0  0  0  0  0  0  0  0
   22.8454   16.7124   22.7464 H   0  0  0  0  0  0  0  0  0  0  0  0
   22.7498   17.6518   21.2448 H   0  0  0  0  0  0  0  0  0  0  0  0
  1  2  1  0  0  0  0
  1  3  2  0  0  0  0
  1  4  1  0  0  0  0
  4  5  1  0  0  0  0
  4  6  1  0  0  0  0
  4  7  1  0  0  0  0
  7  8  1  0  0  0  0
  7  9  1  0  0  0  0
  7 10  1  0  0  0  0
 10 11  1  0  0  0  0
 10 12  1  0  0  0  0
 10 13  1  0  0  0  0
 13 14  1  0  0  0  0
 13 15  1  0  0  0  0
 13 16  1  0  0  0  0
 16 17  1  0  0  0  0
 16 18  1  0  0  0  0
 16 19  1  0  0  0  0
 19 20  1  0  0  0  0
 19 21  1  0  0  0  0
 19 22  1  0  0  0  0
M  END
> <VConfSearch Rank>
638

> <Conf_Id>
82

> <Delta U+W>
3.438

> <U+W>
-49.721

> <U>
11.773

> <W>
-61.495

> <W(PB)>
-63.749

> <W(SA)>
2.254

> <Valence>
10.419

> <Coulomb>
0.565

> <VdW>
0.789

> <VdW6>
-8.847

> <VdW12>
9.636

> <Bond>
0.200

> <Angle>
3.187

> <Pdih>
7.032

> <Idih>
0.001

> <Tether>
0.000

$$$$
VeraChem MOL file


 22 21  0  0  0  0  0  0  0  0999 V2000     
   16.8751   18.4562   23.6556 C   0  0  0  0  0  0  0  0  0  0  0  0
   16.0717   18.9909   22.9169 O   0  5  0  0  0  0  0  0  0  0  0  0
   16.7240   17.3435   24.1202 O   0  0  0  0  0  0  0  0  0  0  0  0
   18.1304   19.2356   24.0379 C   0  0  0  0  0  0  0  0  0  0  0  0
   18.5602   18.7873   24.9419 H   0  0  0  0  0  0  0  0  0  0  0  0
   17.8155   20.2509   24.3062 H   0  0  0  0  0  0  0  0  0  0  0  0
   19.1984   19.3056   22.9153 C   0  0  0  0  0  0  0  0  0  0  0  0
   18.7423   19.7125   22.0023 H   0  0  0  0  0  0  0  0  0  0  0  0
   19.9806   20.0096   23.2260 H   0  0  0  0  0  0  0  0  0  0  0  0
   19.8383   17.9300   22.6161 C   0  0  0  0  0  0  0  0  0  0  0  0
   19.0438   17.1988   22.4139 H   0  0  0  0  0  0  0  0  0  0  0  0
   20.3652   17.5705   23.5105 H   0  0  0  0  0  0  0  0  0  0  0  0
   20.8109   17.9295   21.4101 C   0  0  0  0  0  0  0  0  0  0  0  0
   21.1532   16.8961   21.2630 H   0  0  0  0  0  0  0  0  0  0  0  0
   20.2716   18.1983   20.4915 H   0  0  0  0  0  0  0  0  0  0  0  0
   22.0595   18.8302   21.5826 C   0  0  0  0  0  0  0  0  0  0  0  0
   22.9192   18.3322   21.1133 H   0  0  0  0  0  0  0  0  0  0  0  0
   22.3107   18.9339   22.6471 H   0  0  0  0  0  0  0  0  0  0  0  0
   21.9009   20.2222   20.9311 C   0  0  0  0  0  0  0  0  0  0  0  0
   21.7222   20.1295   19.8519 H   0  0  0  0  0  0  0  0  0  0  0  0
   22.8127   20.8172   21.0702 H   0  0  0  0  0  0  0  0  0  0  0  0
   21.0656   20.7835   21.3648 H   0  0  0  0  0  0  0  0  0  0  0  0
  1  2  1  0  0  0  0
  1  3  2  0  0  0  0
  1  4  1  0  0  0  0
  4  5  1  0  0  0  0
  4  6  1  0  0  0  0
  4  7  1  0  0  0  0
  7  8  1  0  0  0  0
  7  9  1  0  0  0  0
  7 10  1  0  0  0  0
 10 11  1  0  0  0  0
 10 12  1  0  0  0  0
 10 13  1  0  0  0  0
 13 14  1  0  0  0  0
 13 15  1  0  0  0  0
 13 16  1  0  0  0  0
 16 17  1  0  0  0  0
 16 18  1  0  0  0  0
 16 19  1  0  0  0  0
 19 20  1  0  0  0  0
 19 21  1  0  0  0  0
 19 22  1  0  0  0  0
M  END
> <VConfSearch Rank>
639

> <Conf_Id>
94

> <Delta U+W>
3.471

> <U+W>
-49.688

> <U>
11.773

> <W>
-61.461

> <W(PB)>
-63.710

> <W(SA)>
2.248

> <Valence>
10.419

> <Coulomb>
0.566

> <VdW>
0.789

> <VdW6>
-8.847

> <VdW12>
9.636

> <Bond>
0.200

> <Angle>
3.187

> <Pdih>
7.032

> <Idih>
0.001

> <Tether>
0.000

$$$$
VeraChem MOL file


 22 21  0  0  0  0  0  0  0  0999 V2000     
   22.7015   18.6749   23.9672 C   0  0  0  0  0  0  0  0  0  0  0  0
   23.1640   17.7386   24.5885 O   0  5  0  0  0  0  0  0  0  0  0  0
   22.9735   19.8362   24.1995 O   0  0  0  0  0  0  0  0  0  0  0  0
   21.7107   18.3768   22.8477 C   0  0  0  0  0  0  0  0  0  0  0  0
   21.9866   17.4172   22.3946 H   0  0  0  0  0  0  0  0  0  0  0  0
   21.8342   19.1478   22.0787 H   0  0  0  0  0  0  0  0  0  0  0  0
   20.2417   18.3322   23.3423 C   0  0  0  0  0  0  0  0  0  0  0  0
   20.1688   17.6101   24.1672 H   0  0  0  0  0  0  0  0  0  0  0  0
   19.9671   19.3069   23.7669 H   0  0  0  0  0  0  0  0  0  0  0  0
   19.2305   17.9272   22.2406 C   0  0  0  0  0  0  0  0  0  0  0  0
   18.2276   17.8684   22.6835 H   0  0  0  0  0  0  0  0  0  0  0  0
   19.4653   16.9094   21.9009 H   0  0  0  0  0  0  0  0  0  0  0  0
   19.1901   18.8642   21.0046 C   0  0  0  0  0  0  0  0  0  0  0  0
   20.1445   18.7972   20.4662 H   0  0  0  0  0  0  0  0  0  0  0  0
   18.4293   18.4896   20.3065 H   0  0  0  0  0  0  0  0  0  0  0  0
   18.8924   20.3518   21.3148 C   0  0  0  0  0  0  0  0  0  0  0  0
   18.9156   20.9174   20.3733 H   0  0  0  0  0  0  0  0  0  0  0  0
   19.6886   20.7739   21.9425 H   0  0  0  0  0  0  0  0  0  0  0  0
   17.5226   20.5712   21.9926 C   0  0  0  0  0  0  0  0  0  0  0  0
   16.7125   20.1417   21.3891 H   0  0  0  0  0  0  0  0  0  0  0  0
   17.3219   21.6432   22.1155 H   0  0  0  0  0  0  0  0  0  0  0  0
   17.4923   20.1105   22.9880 H   0  0  0  0  0  0  0  0  0  0  0  0
  1  2  1  0  0  0  0
  1  3  2  0  0  0  0
  1  4  1  0  0  0  0
  4  5  1  0  0  0  0
  4  6  1  0  0  0  0
  4  7  1  0  0  0  0
  7  8  1  0  0  0  0
  7  9  1  0  0  0  0
  7 10  1  0  0  0  0
 10 11  1  0  0  0  0
 10 12  1  0  0  0  0
 10 13  1  0  0  0  0
 13 14  1  0  0  0  0
 13 15  1  0  0  0  0
 13 16  1  0  0  0  0
 16 17  1  0  0  0  0
 16 18  1  0  0  0  0
 16 19  1  0  0  0  0
 19 20  1  0  0  0  0
 19 21  1  0  0  0  0
 19 22  1  0  0  0  0
M  END
> <VConfSearch Rank>
640

> <Conf_Id>
56

> <Delta U+W>
0.853

> <U+W>
-52.307

> <U>
8.874

> <W>
-61.181

> <W(PB)>
-63.413

> <W(SA)>
2.232

> <Valence>
8.479

> <Coulomb>
-0.357

> <VdW>
0.753

> <VdW6>
-9.081

> <VdW12>
9.833

> <Bond>
0.221

> <Angle>
3.208

> <Pdih>
5.050

> <Idih>
0.000

> <Tether>
0.000

$$$$
VeraChem MOL file


 22 21  0  0  0  0  0  0  0  0999 V2000     
   15.8251   19.0950   22.7949 C   0  0  0  0  0  0  0  0  0  0  0  0
   15.7674   20.2884   22.5696 O   0  5  0  0  0  0  0  0  0  0  0  0
   14.8533   18.4275   23.0882 O   0  0  0  0  0  0  0  0  0  0  0  0
   17.1702   18.3714   22.7136 C   0  0  0  0  0  0  0  0  0  0  0  0
   17.0630   17.5631   21.9808 H   0  0  0  0  0  0  0  0  0  0  0  0
   17.3474   17.9002   23.6875 H   0  0  0  0  0  0  0  0  0  0  0  0
   18.3814   19.2649   22.3353 C   0  0  0  0  0  0  0  0  0  0  0  0
   18.1947   19.7388   21.3616 H   0  0  0  0  0  0  0  0  0  0  0  0
   18.4795   20.0761   23.0701 H   0  0  0  0  0  0  0  0  0  0  0  0
   19.6954   18.4560   22.2759 C   0  0  0  0  0  0  0  0  0  0  0  0
   19.5949   17.6457   21.5408 H   0  0  0  0  0  0  0  0  0  0  0  0
   19.8799   17.9831   23.2503 H   0  0  0  0  0  0  0  0  0  0  0  0
   20.8989   19.3467   21.8996 C   0  0  0  0  0  0  0  0  0  0  0  0
   20.7148   19.8199   20.9252 H   0  0  0  0  0  0  0  0  0  0  0  0
   20.9998   20.1572   22.6345 H   0  0  0  0  0  0  0  0  0  0  0  0
   22.2123   18.5390   21.8400 C   0  0  0  0  0  0  0  0  0  0  0  0
   22.1159   17.7285   21.1042 H   0  0  0  0  0  0  0  0  0  0  0  0
   22.4008   18.0657   22.8136 H   0  0  0  0  0  0  0  0  0  0  0  0
   23.4116   19.4321   21.4639 C   0  0  0  0  0  0  0  0  0  0  0  0
   23.2638   19.8940   20.4789 H   0  0  0  0  0  0  0  0  0  0  0  0
   24.3366   18.8420   21.4261 H   0  0  0  0  0  0  0  0  0  0  0  0
   23.5509   20.2337   22.2011 H   0  0  0  0  0  0  0  0  0  0  0  0
  1  2  1  0  0  0  0
  1  3  2  0  0  0  0
  1  4  1  0  0  0  0
  4  5  1  0  0  0  0
  4  6  1  0  0  0  0
  4  7  1  0  0  0  0
  7  8  1  0  0  0  0
  7  9  1  0  0  0  0
  7 10  1  0  0  0  0
 10 11  1  0  0  0  0
 10 12  1  0  0  0  0
 10 13  1  0  0  0  0
 13 14  1  0  0  0  0
 13 15  1  0  0  0  0
 13 16  1  0  0  0  0
 16 17  1  0  0  0  0
 16 18  1  0  0  0  0
 16 19  1  0  0  0  0
 19 20  1  0  0  0  0
 19 21  1  0  0  0  0
 19 22  1  0  0  0  0
M  END
> <VConfSearch Rank>
641

> <Conf_Id>
0

> <Delta U+W>
0.000

> <U+W>
-53.159

> <U>
6.763

> <W>
-59.922

> <W(PB)>
-62.256

> <W(SA)>
2.334

> <Valence>
7.600

> <Coulomb>
-2.139

> <VdW>
1.302

> <VdW6>
-6.786

> <VdW12>
8.088

> <Bond>
0.134

> <Angle>
2.720

> <Pdih>
4.746

> <Idih>
0.000

> <Tether>
0.000

$$$$
VeraChem MOL file


 22 21  0  0  0  0  0  0  0  0999 V2000     
   18.1972   15.4416   21.1160 C   0  0  0  0  0  0  0  0  0  0  0  0
   17.8169   14.7668   22.0521 O   0  5  0  0  0  0  0  0  0  0  0  0
   18.6479   14.9745   20.0887 O   0  0  0  0  0  0  0  0  0  0  0  0
   18.1260   16.9589   21.2463 C   0  0  0  0  0  0  0  0  0  0  0  0
   17.2573   17.2070   21.8680 H   0  0  0  0  0  0  0  0  0  0  0  0
   17.9419   17.3782   20.2498 H   0  0  0  0  0  0  0  0  0  0  0  0
   19.4114   17.5716   21.8549 C   0  0  0  0  0  0  0  0  0  0  0  0
   19.5887   17.1320   22.8463 H   0  0  0  0  0  0  0  0  0  0  0  0
   20.2732   17.3031   21.2281 H   0  0  0  0  0  0  0  0  0  0  0  0
   19.3143   19.1077   21.9763 C   0  0  0  0  0  0  0  0  0  0  0  0
   18.4511   19.3726   22.6023 H   0  0  0  0  0  0  0  0  0  0  0  0
   19.1357   19.5438   20.9838 H   0  0  0  0  0  0  0  0  0  0  0  0
   20.5970   19.7156   22.5832 C   0  0  0  0  0  0  0  0  0  0  0  0
   20.7759   19.2797   23.5757 H   0  0  0  0  0  0  0  0  0  0  0  0
   21.4604   19.4509   21.9574 H   0  0  0  0  0  0  0  0  0  0  0  0
   20.5007   21.2509   22.7048 C   0  0  0  0  0  0  0  0  0  0  0  0
   19.6392   21.5196   23.3318 H   0  0  0  0  0  0  0  0  0  0  0  0
   20.3237   21.6908   21.7135 H   0  0  0  0  0  0  0  0  0  0  0  0
   21.7835   21.8541   23.3113 C   0  0  0  0  0  0  0  0  0  0  0  0
   22.6576   21.6272   22.6867 H   0  0  0  0  0  0  0  0  0  0  0  0
   21.9679   21.4546   24.3172 H   0  0  0  0  0  0  0  0  0  0  0  0
   21.6978   22.9456   23.3906 H   0  0  0  0  0  0  0  0  0  0  0  0
  1  2  1  0  0  0  0
  1  3  2  0  0  0  0
  1  4  1  0  0  0  0
  4  5  1  0  0  0  0
  4  6  1  0  0  0  0
  4  7  1  0  0  0  0
  7  8  1  0  0  0  0
  7  9  1  0  0  0  0
  7 10  1  0  0  0  0
 10 11  1  0  0  0  0
 10 12  1  0  0  0  0
 10 13  1  0  0  0  0
 13 14  1  0  0  0  0
 13 15  1  0  0  0  0
 13 16  1  0  0  0  0
 16 17  1  0  0  0  0
 16 18  1  0  0  0  0
 16 19  1  0  0  0  0
 19 20  1  0  0  0  0
 19 21  1  0  0  0  0
 19 22  1  0  0  0  0
M  END
> <VConfSearch Rank>
642

> <Conf_Id>
10

> <Delta U+W>
-1.291

> <U+W>
-54.451

> <U>
5.779

> <W>
-60.230

> <W(PB)>
-62.557

> <W(SA)>
2.328

> <Valence>
7.101

> <Coulomb>
-2.079

> <VdW>
0.757

> <VdW6>
-6.496

> <VdW12>
7.253

> <Bond>
0.100

> <Angle>
2.262

> <Pdih>
4.738

> <Idih>
0.001

> <Tether>
0.000

$$$$
VeraChem MOL file


 22 21  0  0  0  0  0  0  0  0999 V2000     
   17.2731   17.5690   24.7548 C   0  0  0  0  0  0  0  0  0  0  0  0
   16.6810   16.5928   24.3391 O   0  5  0  0  0  0  0  0  0  0  0  0
   17.4482   17.7977   25.9353 O   0  0  0  0  0  0  0  0  0  0  0  0
   17.8464   18.5503   23.7386 C   0  0  0  0  0  0  0  0  0  0  0  0
   17.8161   19.5540   24.1795 H   0  0  0  0  0  0  0  0  0  0  0  0
   17.1849   18.5603   22.8640 H   0  0  0  0  0  0  0  0  0  0  0  0
   19.2924   18.1978   23.3111 C   0  0  0  0  0  0  0  0  0  0  0  0
   19.9387   18.1789   24.1996 H   0  0  0  0  0  0  0  0  0  0  0  0
   19.3080   17.1857   22.8834 H   0  0  0  0  0  0  0  0  0  0  0  0
   19.8496   19.2057   22.2825 C   0  0  0  0  0  0  0  0  0  0  0  0
   19.8348   20.2161   22.7134 H   0  0  0  0  0  0  0  0  0  0  0  0
   19.1932   19.2218   21.4027 H   0  0  0  0  0  0  0  0  0  0  0  0
   21.2919   18.8473   21.8562 C   0  0  0  0  0  0  0  0  0  0  0  0
   21.9201   18.7658   22.7538 H   0  0  0  0  0  0  0  0  0  0  0  0
   21.3019   17.8581   21.3785 H   0  0  0  0  0  0  0  0  0  0  0  0
   21.9281   19.8873   20.9048 C   0  0  0  0  0  0  0  0  0  0  0  0
   22.9825   19.6217   20.7469 H   0  0  0  0  0  0  0  0  0  0  0  0
   21.9256   20.8771   21.3818 H   0  0  0  0  0  0  0  0  0  0  0  0
   21.2258   19.9703   19.5322 C   0  0  0  0  0  0  0  0  0  0  0  0
   21.7665   20.6542   18.8652 H   0  0  0  0  0  0  0  0  0  0  0  0
   20.1990   20.3445   19.6294 H   0  0  0  0  0  0  0  0  0  0  0  0
   21.1896   18.9853   19.0491 H   0  0  0  0  0  0  0  0  0  0  0  0
  1  2  1  0  0  0  0
  1  3  2  0  0  0  0
  1  4  1  0  0  0  0
  4  5  1  0  0  0  0
  4  6  1  0  0  0  0
  4  7  1  0  0  0  0
  7  8  1  0  0  0  0
  7  9  1  0  0  0  0
  7 10  1  0  0  0  0
 10 11  1  0  0  0  0
 10 12  1  0  0  0  0
 10 13  1  0  0  0  0
 13 14  1  0  0  0  0
 13 15  1  0  0  0  0
 13 16  1  0  0  0  0
 16 17  1  0  0  0  0
 16 18  1  0  0  0  0
 16 19  1  0  0  0  0
 19 20  1  0  0  0  0
 19 21  1  0  0  0  0
 19 22  1  0  0  0  0
M  END
> <VConfSearch Rank>
643

> <Conf_Id>
37

> <Delta U+W>
-0.345

> <U+W>
-53.504

> <U>
6.751

> <W>
-60.255

> <W(PB)>
-62.592

> <W(SA)>
2.336

> <Valence>
7.602

> <Coulomb>
-1.744

> <VdW>
0.894

> <VdW6>
-7.110

> <VdW12>
8.004

> <Bond>
0.131

> <Angle>
2.489

> <Pdih>
4.982

> <Idih>
0.001

> <Tether>
0.000

$$$$
VeraChem MOL file


 22 21  0  0  0  0  0  0  0  0999 V2000     
   20.3394   22.2896   20.2039 C   0  0  0  0  0  0  0  0  0  0  0  0
   21.4880   22.4280   19.8324 O   0  5  0  0  0  0  0  0  0  0  0  0
   19.5817   23.2173   20.4081 O   0  0  0  0  0  0  0  0  0  0  0  0
   19.8273   20.8746   20.4482 C   0  0  0  0  0  0  0  0  0  0  0  0
   20.3276   20.2040   19.7392 H   0  0  0  0  0  0  0  0  0  0  0  0
   18.7564   20.8544   20.2130 H   0  0  0  0  0  0  0  0  0  0  0  0
   20.0648   20.3909   21.9000 C   0  0  0  0  0  0  0  0  0  0  0  0
   21.1399   20.4287   22.1240 H   0  0  0  0  0  0  0  0  0  0  0  0
   19.5691   21.0803   22.5975 H   0  0  0  0  0  0  0  0  0  0  0  0
   19.5376   18.9565   22.1216 C   0  0  0  0  0  0  0  0  0  0  0  0
   20.0336   18.2779   21.4155 H   0  0  0  0  0  0  0  0  0  0  0  0
   18.4623   18.9223   21.8992 H   0  0  0  0  0  0  0  0  0  0  0  0
   19.7805   18.4770   23.5712 C   0  0  0  0  0  0  0  0  0  0  0  0
   20.8589   18.4615   23.7803 H   0  0  0  0  0  0  0  0  0  0  0  0
   19.3391   19.2038   24.2668 H   0  0  0  0  0  0  0  0  0  0  0  0
   19.1764   17.0846   23.8675 C   0  0  0  0  0  0  0  0  0  0  0  0
   18.0964   17.0980   23.6657 H   0  0  0  0  0  0  0  0  0  0  0  0
   19.2889   16.8726   24.9398 H   0  0  0  0  0  0  0  0  0  0  0  0
   19.8411   15.9461   23.0636 C   0  0  0  0  0  0  0  0  0  0  0  0
   20.9266   15.9320   23.2264 H   0  0  0  0  0  0  0  0  0  0  0  0
   19.6552   16.0538   21.9877 H   0  0  0  0  0  0  0  0  0  0  0  0
   19.4402   14.9725   23.3739 H   0  0  0  0  0  0  0  0  0  0  0  0
  1  2  1  0  0  0  0
  1  3  2  0  0  0  0
  1  4  1  0  0  0  0
  4  5  1  0  0  0  0
  4  6  1  0  0  0  0
  4  7  1  0  0  0  0
  7  8  1  0  0  0  0
  7  9  1  0  0  0  0
  7 10  1  0  0  0  0
 10 11  1  0  0  0  0
 10 12  1  0  0  0  0
 10 13  1  0  0  0  0
 13 14  1  0  0  0  0
 13 15  1  0  0  0  0
 13 16  1  0  0  0  0
 16 17  1  0  0  0  0
 16 18  1  0  0  0  0
 16 19  1  0  0  0  0
 19 20  1  0  0  0  0
 19 21  1  0  0  0  0
 19 22  1  0  0  0  0
M  END
> <VConfSearch Rank>
644

> <Conf_Id>
38

> <Delta U+W>
-0.439

> <U+W>
-53.598

> <U>
6.751

> <W>
-60.350

> <W(PB)>
-62.659

> <W(SA)>
2.309

> <Valence>
7.602

> <Coulomb>
-1.744

> <VdW>
0.893

> <VdW6>
-7.110

> <VdW12>
8.004

> <Bond>
0.131

> <Angle>
2.489

> <Pdih>
4.981

> <Idih>
0.001

> <Tether>
0.000

$$$$
VeraChem MOL file


 22 21  0  0  0  0  0  0  0  0999 V2000     
   19.2429   22.7315   22.2113 C   0  0  0  0  0  0  0  0  0  0  0  0
   18.7925   23.3421   23.1604 O   0  5  0  0  0  0  0  0  0  0  0  0
   19.2058   23.1422   21.0682 O   0  0  0  0  0  0  0  0  0  0  0  0
   19.8689   21.3649   22.4658 C   0  0  0  0  0  0  0  0  0  0  0  0
   20.3238   21.3798   23.4634 H   0  0  0  0  0  0  0  0  0  0  0  0
   20.6789   21.2300   21.7404 H   0  0  0  0  0  0  0  0  0  0  0  0
   18.8422   20.2068   22.3632 C   0  0  0  0  0  0  0  0  0  0  0  0
   17.9986   20.4255   23.0324 H   0  0  0  0  0  0  0  0  0  0  0  0
   18.4291   20.1708   21.3457 H   0  0  0  0  0  0  0  0  0  0  0  0
   19.4261   18.8241   22.7400 C   0  0  0  0  0  0  0  0  0  0  0  0
   18.5983   18.1044   22.7749 H   0  0  0  0  0  0  0  0  0  0  0  0
   19.8457   18.8659   23.7543 H   0  0  0  0  0  0  0  0  0  0  0  0
   20.5039   18.3205   21.7488 C   0  0  0  0  0  0  0  0  0  0  0  0
   20.0846   18.2804   20.7342 H   0  0  0  0  0  0  0  0  0  0  0  0
   21.3336   19.0377   21.7152 H   0  0  0  0  0  0  0  0  0  0  0  0
   21.0839   16.9365   22.1234 C   0  0  0  0  0  0  0  0  0  0  0  0
   21.4941   16.9692   23.1422 H   0  0  0  0  0  0  0  0  0  0  0  0
   21.9289   16.7175   21.4561 H   0  0  0  0  0  0  0  0  0  0  0  0
   20.0563   15.7892   22.0126 C   0  0  0  0  0  0  0  0  0  0  0  0
   19.2504   15.8990   22.7488 H   0  0  0  0  0  0  0  0  0  0  0  0
   20.5412   14.8214   22.1943 H   0  0  0  0  0  0  0  0  0  0  0  0
   19.6072   15.7592   21.0113 H   0  0  0  0  0  0  0  0  0  0  0  0
  1  2  1  0  0  0  0
  1  3  2  0  0  0  0
  1  4  1  0  0  0  0
  4  5  1  0  0  0  0
  4  6  1  0  0  0  0
  4  7  1  0  0  0  0
  7  8  1  0  0  0  0
  7  9  1  0  0  0  0
  7 10  1  0  0  0  0
 10 11  1  0  0  0  0
 10 12  1  0  0  0  0
 10 13  1  0  0  0  0
 13 14  1  0  0  0  0
 13 15  1  0  0  0  0
 13 16  1  0  0  0  0
 16 17  1  0  0  0  0
 16 18  1  0  0  0  0
 16 19  1  0  0  0  0
 19 20  1  0  0  0  0
 19 21  1  0  0  0  0
 19 22  1  0  0  0  0
M  END
> <VConfSearch Rank>
645

> <Conf_Id>
60

> <Delta U+W>
0.386

> <U+W>
-52.773

> <U>
7.689

> <W>
-60.463

> <W(PB)>
-62.772

> <W(SA)>
2.309

> <Valence>
8.197

> <Coulomb>
-1.561

> <VdW>
1.053

> <VdW6>
-7.737

> <VdW12>
8.790

> <Bond>
0.181

> <Angle>
2.780

> <Pdih>
5.235

> <Idih>
0.001

> <Tether>
0.000

$$$$
VeraChem MOL file


 22 21  0  0  0  0  0  0  0  0999 V2000     
   19.9411   20.1676   25.7925 C   0  0  0  0  0  0  0  0  0  0  0  0
   20.3607   21.3074   25.8281 O   0  5  0  0  0  0  0  0  0  0  0  0
   19.9076   19.4326   26.7596 O   0  0  0  0  0  0  0  0  0  0  0  0
   19.4506   19.6218   24.4562 C   0  0  0  0  0  0  0  0  0  0  0  0
   19.0070   20.4549   23.8996 H   0  0  0  0  0  0  0  0  0  0  0  0
   18.6493   18.9007   24.6569 H   0  0  0  0  0  0  0  0  0  0  0  0
   20.5800   18.9509   23.6317 C   0  0  0  0  0  0  0  0  0  0  0  0
   21.3535   19.6944   23.3945 H   0  0  0  0  0  0  0  0  0  0  0  0
   21.0650   18.1882   24.2566 H   0  0  0  0  0  0  0  0  0  0  0  0
   20.0831   18.2793   22.3291 C   0  0  0  0  0  0  0  0  0  0  0  0
   19.3043   17.5426   22.5690 H   0  0  0  0  0  0  0  0  0  0  0  0
   20.9205   17.7174   21.8962 H   0  0  0  0  0  0  0  0  0  0  0  0
   19.5451   19.2871   21.2837 C   0  0  0  0  0  0  0  0  0  0  0  0
   18.7056   19.8474   21.7142 H   0  0  0  0  0  0  0  0  0  0  0  0
   20.3233   20.0248   21.0454 H   0  0  0  0  0  0  0  0  0  0  0  0
   19.0527   18.6157   19.9803 C   0  0  0  0  0  0  0  0  0  0  0  0
   18.5656   19.3770   19.3554 H   0  0  0  0  0  0  0  0  0  0  0  0
   18.2821   17.8686   20.2156 H   0  0  0  0  0  0  0  0  0  0  0  0
   20.1850   17.9561   19.1634 C   0  0  0  0  0  0  0  0  0  0  0  0
   20.9840   18.6768   18.9460 H   0  0  0  0  0  0  0  0  0  0  0  0
   19.7991   17.5812   18.2066 H   0  0  0  0  0  0  0  0  0  0  0  0
   20.6242   17.1055   19.6992 H   0  0  0  0  0  0  0  0  0  0  0  0
  1  2  1  0  0  0  0
  1  3  2  0  0  0  0
  1  4  1  0  0  0  0
  4  5  1  0  0  0  0
  4  6  1  0  0  0  0
  4  7  1  0  0  0  0
  7  8  1  0  0  0  0
  7  9  1  0  0  0  0
  7 10  1  0  0  0  0
 10 11  1  0  0  0  0
 10 12  1  0  0  0  0
 10 13  1  0  0  0  0
 13 14  1  0  0  0  0
 13 15  1  0  0  0  0
 13 16  1  0  0  0  0
 16 17  1  0  0  0  0
 16 18  1  0  0  0  0
 16 19  1  0  0  0  0
 19 20  1  0  0  0  0
 19 21  1  0  0  0  0
 19 22  1  0  0  0  0
M  END
> <VConfSearch Rank>
646

> <Conf_Id>
28

> <Delta U+W>
0.351

> <U+W>
-52.808

> <U>
7.689

> <W>
-60.498

> <W(PB)>
-62.768

> <W(SA)>
2.270

> <Valence>
8.197

> <Coulomb>
-1.561

> <VdW>
1.053

> <VdW6>
-7.737

> <VdW12>
8.791

> <Bond>
0.181

> <Angle>
2.780

> <Pdih>
5.235

> <Idih>
0.001

> <Tether>
0.000

$$$$
VeraChem MOL file


 22 21  0  0  0  0  0  0  0  0999 V2000     
   21.5173   17.6039   25.3836 C   0  0  0  0  0  0  0  0  0  0  0  0
   21.2045   18.1441   26.4261 O   0  5  0  0  0  0  0  0  0  0  0  0
   21.6449   16.4018   25.2604 O   0  0  0  0  0  0  0  0  0  0  0  0
   21.7426   18.4813   24.1574 C   0  0  0  0  0  0  0  0  0  0  0  0
   22.5101   18.0060   23.5347 H   0  0  0  0  0  0  0  0  0  0  0  0
   22.1489   19.4419   24.4961 H   0  0  0  0  0  0  0  0  0  0  0  0
   20.4509   18.7070   23.3335 C   0  0  0  0  0  0  0  0  0  0  0  0
   20.0532   17.7316   23.0236 H   0  0  0  0  0  0  0  0  0  0  0  0
   19.6899   19.1750   23.9732 H   0  0  0  0  0  0  0  0  0  0  0  0
   20.7091   19.5953   22.0945 C   0  0  0  0  0  0  0  0  0  0  0  0
   21.4308   19.1024   21.4287 H   0  0  0  0  0  0  0  0  0  0  0  0
   21.1775   20.5343   22.4199 H   0  0  0  0  0  0  0  0  0  0  0  0
   19.4246   19.9375   21.3030 C   0  0  0  0  0  0  0  0  0  0  0  0
   18.7042   20.4341   21.9674 H   0  0  0  0  0  0  0  0  0  0  0  0
   19.6808   20.6669   20.5224 H   0  0  0  0  0  0  0  0  0  0  0  0
   18.7618   18.7079   20.6419 C   0  0  0  0  0  0  0  0  0  0  0  0
   18.4265   17.9995   21.4107 H   0  0  0  0  0  0  0  0  0  0  0  0
   19.4971   18.1808   20.0185 H   0  0  0  0  0  0  0  0  0  0  0  0
   17.5535   19.1151   19.7746 C   0  0  0  0  0  0  0  0  0  0  0  0
   17.8591   19.7953   18.9689 H   0  0  0  0  0  0  0  0  0  0  0  0
   16.7893   19.6208   20.3792 H   0  0  0  0  0  0  0  0  0  0  0  0
   17.0921   18.2314   19.3150 H   0  0  0  0  0  0  0  0  0  0  0  0
  1  2  1  0  0  0  0
  1  3  2  0  0  0  0
  1  4  1  0  0  0  0
  4  5  1  0  0  0  0
  4  6  1  0  0  0  0
  4  7  1  0  0  0  0
  7  8  1  0  0  0  0
  7  9  1  0  0  0  0
  7 10  1  0  0  0  0
 10 11  1  0  0  0  0
 10 12  1  0  0  0  0
 10 13  1  0  0  0  0
 13 14  1  0  0  0  0
 13 15  1  0  0  0  0
 13 16  1  0  0  0  0
 16 17  1  0  0  0  0
 16 18  1  0  0  0  0
 16 19  1  0  0  0  0
 19 20  1  0  0  0  0
 19 21  1  0  0  0  0
 19 22  1  0  0  0  0
M  END
> <VConfSearch Rank>
647

> <Conf_Id>
50

> <Delta U+W>
-0.486

> <U+W>
-53.646

> <U>
7.026

> <W>
-60.672

> <W(PB)>
-62.964

> <W(SA)>
2.292

> <Valence>
7.637

> <Coulomb>
-1.488

> <VdW>
0.877

> <VdW6>
-7.165

> <VdW12>
8.043

> <Bond>
0.134

> <Angle>
2.513

> <Pdih>
4.990

> <Idih>
0.001

> <Tether>
0.000

$$$$
VeraChem MOL file


 22 21  0  0  0  0  0  0  0  0999 V2000     
   17.3291   20.2193   19.6718 C   0  0  0  0  0  0  0  0  0  0  0  0
   17.5012   21.3415   19.2390 O   0  5  0  0  0  0  0  0  0  0  0  0
   16.2368   19.7657   19.9508 O   0  0  0  0  0  0  0  0  0  0  0  0
   18.5531   19.3387   19.8967 C   0  0  0  0  0  0  0  0  0  0  0  0
   19.3009   19.5945   19.1364 H   0  0  0  0  0  0  0  0  0  0  0  0
   18.2593   18.2963   19.7249 H   0  0  0  0  0  0  0  0  0  0  0  0
   19.1557   19.4968   21.3145 C   0  0  0  0  0  0  0  0  0  0  0  0
   19.4364   20.5471   21.4743 H   0  0  0  0  0  0  0  0  0  0  0  0
   18.3837   19.2550   22.0568 H   0  0  0  0  0  0  0  0  0  0  0  0
   20.3918   18.5900   21.5164 C   0  0  0  0  0  0  0  0  0  0  0  0
   21.1187   18.7946   20.7184 H   0  0  0  0  0  0  0  0  0  0  0  0
   20.1003   17.5362   21.4087 H   0  0  0  0  0  0  0  0  0  0  0  0
   21.0915   18.7966   22.8807 C   0  0  0  0  0  0  0  0  0  0  0  0
   22.0212   18.2113   22.8871 H   0  0  0  0  0  0  0  0  0  0  0  0
   21.3868   19.8494   22.9872 H   0  0  0  0  0  0  0  0  0  0  0  0
   20.2249   18.3739   24.0884 C   0  0  0  0  0  0  0  0  0  0  0  0
   19.8856   17.3372   23.9564 H   0  0  0  0  0  0  0  0  0  0  0  0
   19.3254   19.0007   24.1468 H   0  0  0  0  0  0  0  0  0  0  0  0
   21.0051   18.4924   25.4131 C   0  0  0  0  0  0  0  0  0  0  0  0
   21.3333   19.5261   25.5840 H   0  0  0  0  0  0  0  0  0  0  0  0
   21.8934   17.8473   25.4056 H   0  0  0  0  0  0  0  0  0  0  0  0
   20.3757   18.1921   26.2609 H   0  0  0  0  0  0  0  0  0  0  0  0
  1  2  1  0  0  0  0
  1  3  2  0  0  0  0
  1  4  1  0  0  0  0
  4  5  1  0  0  0  0
  4  6  1  0  0  0  0
  4  7  1  0  0  0  0
  7  8  1  0  0  0  0
  7  9  1  0  0  0  0
  7 10  1  0  0  0  0
 10 11  1  0  0  0  0
 10 12  1  0  0  0  0
 10 13  1  0  0  0  0
 13 14  1  0  0  0  0
 13 15  1  0  0  0  0
 13 16  1  0  0  0  0
 16 17  1  0  0  0  0
 16 18  1  0  0  0  0
 16 19  1  0  0  0  0
 19 20  1  0  0  0  0
 19 21  1  0  0  0  0
 19 22  1  0  0  0  0
M  END
> <VConfSearch Rank>
648

> <Conf_Id>
51

> <Delta U+W>
-0.517

> <U+W>
-53.677

> <U>
7.026

> <W>
-60.703

> <W(PB)>
-63.007

> <W(SA)>
2.304

> <Valence>
7.638

> <Coulomb>
-1.488

> <VdW>
0.877

> <VdW6>
-7.165

> <VdW12>
8.042

> <Bond>
0.134

> <Angle>
2.513

> <Pdih>
4.990

> <Idih>
0.001

> <Tether>
0.000

$$$$
VeraChem MOL file


 22 21  0  0  0  0  0  0  0  0999 V2000     
   17.3423   20.8674   23.4085 C   0  0  0  0  0  0  0  0  0  0  0  0
   16.8788   20.5228   24.4778 O   0  5  0  0  0  0  0  0  0  0  0  0
   17.8534   21.9530   23.2157 O   0  0  0  0  0  0  0  0  0  0  0  0
   17.2598   19.8889   22.2403 C   0  0  0  0  0  0  0  0  0  0  0  0
   17.3901   20.4476   21.3056 H   0  0  0  0  0  0  0  0  0  0  0  0
   16.2427   19.4798   22.2264 H   0  0  0  0  0  0  0  0  0  0  0  0
   18.2842   18.7271   22.3171 C   0  0  0  0  0  0  0  0  0  0  0  0
   18.1601   18.1948   23.2704 H   0  0  0  0  0  0  0  0  0  0  0  0
   18.0635   18.0041   21.5202 H   0  0  0  0  0  0  0  0  0  0  0  0
   19.7444   19.2121   22.1747 C   0  0  0  0  0  0  0  0  0  0  0  0
   19.9783   19.9233   22.9790 H   0  0  0  0  0  0  0  0  0  0  0  0
   19.8600   19.7548   21.2264 H   0  0  0  0  0  0  0  0  0  0  0  0
   20.7444   18.0369   22.2223 C   0  0  0  0  0  0  0  0  0  0  0  0
   20.6282   17.4947   23.1709 H   0  0  0  0  0  0  0  0  0  0  0  0
   20.5143   17.3257   21.4171 H   0  0  0  0  0  0  0  0  0  0  0  0
   22.2029   18.5205   22.0810 C   0  0  0  0  0  0  0  0  0  0  0  0
   22.4372   19.2308   22.8860 H   0  0  0  0  0  0  0  0  0  0  0  0
   22.3233   19.0619   21.1324 H   0  0  0  0  0  0  0  0  0  0  0  0
   23.1986   17.3442   22.1297 C   0  0  0  0  0  0  0  0  0  0  0  0
   23.1215   16.8036   23.0821 H   0  0  0  0  0  0  0  0  0  0  0  0
   24.2300   17.7060   22.0278 H   0  0  0  0  0  0  0  0  0  0  0  0
   23.0068   16.6333   21.3153 H   0  0  0  0  0  0  0  0  0  0  0  0
  1  2  1  0  0  0  0
  1  3  2  0  0  0  0
  1  4  1  0  0  0  0
  4  5  1  0  0  0  0
  4  6  1  0  0  0  0
  4  7  1  0  0  0  0
  7  8  1  0  0  0  0
  7  9  1  0  0  0  0
  7 10  1  0  0  0  0
 10 11  1  0  0  0  0
 10 12  1  0  0  0  0
 10 13  1  0  0  0  0
 13 14  1  0  0  0  0
 13 15  1  0  0  0  0
 13 16  1  0  0  0  0
 16 17  1  0  0  0  0
 16 18  1  0  0  0  0
 16 19  1  0  0  0  0
 19 20  1  0  0  0  0
 19 21  1  0  0  0  0
 19 22  1  0  0  0  0
M  END
> <VConfSearch Rank>
649

> <Conf_Id>
43

> <Delta U+W>
-0.129

> <U+W>
-53.289

> <U>
7.937

> <W>
-61.225

> <W(PB)>
-63.523

> <W(SA)>
2.297

> <Valence>
7.358

> <Coulomb>
-0.022

> <VdW>
0.601

> <VdW6>
-7.363

> <VdW12>
7.964

> <Bond>
0.121

> <Angle>
2.425

> <Pdih>
4.811

> <Idih>
0.000

> <Tether>
0.000

$$$$
VeraChem MOL file


 22 21  0  0  0  0  0  0  0  0999 V2000     
   18.0745   21.4892   24.2368 C   0  0  0  0  0  0  0  0  0  0  0  0
   17.3029   22.1660   23.5860 O   0  5  0  0  0  0  0  0  0  0  0  0
   19.0415   21.9421   24.8169 O   0  0  0  0  0  0  0  0  0  0  0  0
   17.8018   19.9915   24.3451 C   0  0  0  0  0  0  0  0  0  0  0  0
   16.7346   19.8675   24.5636 H   0  0  0  0  0  0  0  0  0  0  0  0
   18.3505   19.5972   25.2090 H   0  0  0  0  0  0  0  0  0  0  0  0
   18.1656   19.1901   23.0682 C   0  0  0  0  0  0  0  0  0  0  0  0
   17.8112   18.1568   23.1830 H   0  0  0  0  0  0  0  0  0  0  0  0
   17.6302   19.6143   22.2074 H   0  0  0  0  0  0  0  0  0  0  0  0
   19.6848   19.1793   22.7862 C   0  0  0  0  0  0  0  0  0  0  0  0
   20.2163   18.7666   23.6546 H   0  0  0  0  0  0  0  0  0  0  0  0
   20.0438   20.2092   22.6531 H   0  0  0  0  0  0  0  0  0  0  0  0
   20.0270   18.3504   21.5295 C   0  0  0  0  0  0  0  0  0  0  0  0
   19.6715   17.3192   21.6613 H   0  0  0  0  0  0  0  0  0  0  0  0
   19.4951   18.7637   20.6615 H   0  0  0  0  0  0  0  0  0  0  0  0
   21.5439   18.3398   21.2467 C   0  0  0  0  0  0  0  0  0  0  0  0
   22.0792   17.9254   22.1122 H   0  0  0  0  0  0  0  0  0  0  0  0
   21.9029   19.3696   21.1125 H   0  0  0  0  0  0  0  0  0  0  0  0
   21.8818   17.5116   19.9907 C   0  0  0  0  0  0  0  0  0  0  0  0
   21.5616   16.4683   20.1103 H   0  0  0  0  0  0  0  0  0  0  0  0
   22.9637   17.5149   19.8047 H   0  0  0  0  0  0  0  0  0  0  0  0
   21.3840   17.9235   19.1031 H   0  0  0  0  0  0  0  0  0  0  0  0
  1  2  1  0  0  0  0
  1  3  2  0  0  0  0
  1  4  1  0  0  0  0
  4  5  1  0  0  0  0
  4  6  1  0  0  0  0
  4  7  1  0  0  0  0
  7  8  1  0  0  0  0
  7  9  1  0  0  0  0
  7 10  1  0  0  0  0
 10 11  1  0  0  0  0
 10 12  1  0  0  0  0
 10 13  1  0  0  0  0
 13 14  1  0  0  0  0
 13 15  1  0  0  0  0
 13 16  1  0  0  0  0
 16 17  1  0  0  0  0
 16 18  1  0  0  0  0
 16 19  1  0  0  0  0
 19 20  1  0  0  0  0
 19 21  1  0  0  0  0
 19 22  1  0  0  0  0
M  END
> <VConfSearch Rank>
650

> <Conf_Id>
44

> <Delta U+W>
-0.155

> <U+W>
-53.314

> <U>
7.937

> <W>
-61.252

> <W(PB)>
-63.556

> <W(SA)>
2.304

> <Valence>
7.358

> <Coulomb>
-0.021

> <VdW>
0.600

> <VdW6>
-7.363

> <VdW12>
7.964

> <Bond>
0.121

> <Angle>
2.425

> <Pdih>
4.811

> <Idih>
0.001

> <Tether>
0.000

$$$$
VeraChem MOL file


 22 21  0  0  0  0  0  0  0  0999 V2000     
   21.9490   20.7841   24.4406 C   0  0  0  0  0  0  0  0  0  0  0  0
   22.5048   20.0359   25.2205 O   0  5  0  0  0  0  0  0  0  0  0  0
   21.3894   21.8095   24.7758 O   0  0  0  0  0  0  0  0  0  0  0  0
   21.9729   20.4244   22.9576 C   0  0  0  0  0  0  0  0  0  0  0  0
   22.9997   20.1311   22.7089 H   0  0  0  0  0  0  0  0  0  0  0  0
   21.7503   21.3262   22.3744 H   0  0  0  0  0  0  0  0  0  0  0  0
   20.9997   19.2813   22.5681 C   0  0  0  0  0  0  0  0  0  0  0  0
   21.2006   18.9932   21.5285 H   0  0  0  0  0  0  0  0  0  0  0  0
   21.2085   18.3986   23.1884 H   0  0  0  0  0  0  0  0  0  0  0  0
   19.5143   19.6890   22.7186 C   0  0  0  0  0  0  0  0  0  0  0  0
   19.2970   20.5454   22.0658 H   0  0  0  0  0  0  0  0  0  0  0  0
   19.3371   20.0318   23.7472 H   0  0  0  0  0  0  0  0  0  0  0  0
   18.5252   18.5393   22.4125 C   0  0  0  0  0  0  0  0  0  0  0  0
   18.7430   17.6830   23.0654 H   0  0  0  0  0  0  0  0  0  0  0  0
   17.5115   18.8756   22.6697 H   0  0  0  0  0  0  0  0  0  0  0  0
   18.5425   18.0862   20.9350 C   0  0  0  0  0  0  0  0  0  0  0  0
   19.5254   17.6704   20.6778 H   0  0  0  0  0  0  0  0  0  0  0  0
   18.3788   18.9527   20.2797 H   0  0  0  0  0  0  0  0  0  0  0  0
   17.4608   17.0229   20.6573 C   0  0  0  0  0  0  0  0  0  0  0  0
   17.6165   16.1327   21.2809 H   0  0  0  0  0  0  0  0  0  0  0  0
   17.4880   16.7091   19.6057 H   0  0  0  0  0  0  0  0  0  0  0  0
   16.4581   17.4176   20.8672 H   0  0  0  0  0  0  0  0  0  0  0  0
  1  2  1  0  0  0  0
  1  3  2  0  0  0  0
  1  4  1  0  0  0  0
  4  5  1  0  0  0  0
  4  6  1  0  0  0  0
  4  7  1  0  0  0  0
  7  8  1  0  0  0  0
  7  9  1  0  0  0  0
  7 10  1  0  0  0  0
 10 11  1  0  0  0  0
 10 12  1  0  0  0  0
 10 13  1  0  0  0  0
 13 14  1  0  0  0  0
 13 15  1  0  0  0  0
 13 16  1  0  0  0  0
 16 17  1  0  0  0  0
 16 18  1  0  0  0  0
 16 19  1  0  0  0  0
 19 20  1  0  0  0  0
 19 21  1  0  0  0  0
 19 22  1  0  0  0  0
M  END
> <VConfSearch Rank>
651

> <Conf_Id>
53

> <Delta U+W>
0.723

> <U+W>
-52.436

> <U>
8.587

> <W>
-61.022

> <W(PB)>
-63.285

> <W(SA)>
2.263

> <Valence>
7.933

> <Coulomb>
-0.124

> <VdW>
0.778

> <VdW6>
-7.981

> <VdW12>
8.759

> <Bond>
0.160

> <Angle>
2.698

> <Pdih>
5.074

> <Idih>
0.001

> <Tether>
0.000

$$$$
VeraChem MOL file


 22 21  0  0  0  0  0  0  0  0999 V2000     
   22.2728   16.7803   22.2698 C   0  0  0  0  0  0  0  0  0  0  0  0
   22.3310   16.2094   23.3409 O   0  5  0  0  0  0  0  0  0  0  0  0
   22.9820   16.5060   21.3220 O   0  0  0  0  0  0  0  0  0  0  0  0
   21.2381   17.8866   22.0982 C   0  0  0  0  0  0  0  0  0  0  0  0
   21.6368   18.6191   21.3863 H   0  0  0  0  0  0  0  0  0  0  0  0
   21.1288   18.3906   23.0651 H   0  0  0  0  0  0  0  0  0  0  0  0
   19.8668   17.3554   21.6098 C   0  0  0  0  0  0  0  0  0  0  0  0
   20.0268   16.7394   20.7141 H   0  0  0  0  0  0  0  0  0  0  0  0
   19.4466   16.6853   22.3725 H   0  0  0  0  0  0  0  0  0  0  0  0
   18.8381   18.4623   21.2674 C   0  0  0  0  0  0  0  0  0  0  0  0
   17.9328   17.9669   20.8907 H   0  0  0  0  0  0  0  0  0  0  0  0
   19.2087   19.0779   20.4364 H   0  0  0  0  0  0  0  0  0  0  0  0
   18.4341   19.3608   22.4637 C   0  0  0  0  0  0  0  0  0  0  0  0
   17.3679   19.6082   22.3687 H   0  0  0  0  0  0  0  0  0  0  0  0
   18.5357   18.8040   23.4053 H   0  0  0  0  0  0  0  0  0  0  0  0
   19.2299   20.6848   22.5322 C   0  0  0  0  0  0  0  0  0  0  0  0
   19.0722   21.2565   21.6072 H   0  0  0  0  0  0  0  0  0  0  0  0
   20.3062   20.4857   22.5982 H   0  0  0  0  0  0  0  0  0  0  0  0
   18.7988   21.5416   23.7393 C   0  0  0  0  0  0  0  0  0  0  0  0
   17.7317   21.7932   23.6818 H   0  0  0  0  0  0  0  0  0  0  0  0
   19.3671   22.4803   23.7701 H   0  0  0  0  0  0  0  0  0  0  0  0
   18.9750   21.0076   24.6822 H   0  0  0  0  0  0  0  0  0  0  0  0
  1  2  1  0  0  0  0
  1  3  2  0  0  0  0
  1  4  1  0  0  0  0
  4  5  1  0  0  0  0
  4  6  1  0  0  0  0
  4  7  1  0  0  0  0
  7  8  1  0  0  0  0
  7  9  1  0  0  0  0
  7 10  1  0  0  0  0
 10 11  1  0  0  0  0
 10 12  1  0  0  0  0
 10 13  1  0  0  0  0
 13 14  1  0  0  0  0
 13 15  1  0  0  0  0
 13 16  1  0  0  0  0
 16 17  1  0  0  0  0
 16 18  1  0  0  0  0
 16 19  1  0  0  0  0
 19 20  1  0  0  0  0
 19 21  1  0  0  0  0
 19 22  1  0  0  0  0
M  END
> <VConfSearch Rank>
652

> <Conf_Id>
5

> <Delta U+W>
2.167

> <U+W>
-50.993

> <U>
10.045

> <W>
-61.037

> <W(PB)>
-63.303

> <W(SA)>
2.266

> <Valence>
10.100

> <Coulomb>
-0.883

> <VdW>
0.828

> <VdW6>
-8.177

> <VdW12>
9.005

> <Bond>
0.182

> <Angle>
2.988

> <Pdih>
6.930

> <Idih>
0.001

> <Tether>
0.000

$$$$
VeraChem MOL file


 22 21  0  0  0  0  0  0  0  0999 V2000     
   17.1565   19.4144   24.2327 C   0  0  0  0  0  0  0  0  0  0  0  0
   16.1974   19.5837   23.5061 O   0  5  0  0  0  0  0  0  0  0  0  0
   17.1074   19.5051   25.4435 O   0  0  0  0  0  0  0  0  0  0  0  0
   18.5005   19.0929   23.5889 C   0  0  0  0  0  0  0  0  0  0  0  0
   18.3032   18.4976   22.6903 H   0  0  0  0  0  0  0  0  0  0  0  0
   19.0699   18.4645   24.2839 H   0  0  0  0  0  0  0  0  0  0  0  0
   19.3114   20.3626   23.2264 C   0  0  0  0  0  0  0  0  0  0  0  0
   18.7612   20.9387   22.4696 H   0  0  0  0  0  0  0  0  0  0  0  0
   19.3750   21.0053   24.1154 H   0  0  0  0  0  0  0  0  0  0  0  0
   20.7484   20.0801   22.7207 C   0  0  0  0  0  0  0  0  0  0  0  0
   21.3368   19.5913   23.5093 H   0  0  0  0  0  0  0  0  0  0  0  0
   21.2334   21.0500   22.5446 H   0  0  0  0  0  0  0  0  0  0  0  0
   20.8214   19.2590   21.4084 C   0  0  0  0  0  0  0  0  0  0  0  0
   19.9169   19.4263   20.8076 H   0  0  0  0  0  0  0  0  0  0  0  0
   21.6607   19.6362   20.8081 H   0  0  0  0  0  0  0  0  0  0  0  0
   21.0403   17.7464   21.6429 C   0  0  0  0  0  0  0  0  0  0  0  0
   20.2382   17.3319   22.2652 H   0  0  0  0  0  0  0  0  0  0  0  0
   21.9778   17.5921   22.1948 H   0  0  0  0  0  0  0  0  0  0  0  0
   21.1003   16.9708   20.3117 C   0  0  0  0  0  0  0  0  0  0  0  0
   20.1624   17.0802   19.7516 H   0  0  0  0  0  0  0  0  0  0  0  0
   21.2631   15.9007   20.4945 H   0  0  0  0  0  0  0  0  0  0  0  0
   21.9213   17.3357   19.6807 H   0  0  0  0  0  0  0  0  0  0  0  0
  1  2  1  0  0  0  0
  1  3  2  0  0  0  0
  1  4  1  0  0  0  0
  4  5  1  0  0  0  0
  4  6  1  0  0  0  0
  4  7  1  0  0  0  0
  7  8  1  0  0  0  0
  7  9  1  0  0  0  0
  7 10  1  0  0  0  0
 10 11  1  0  0  0  0
 10 12  1  0  0  0  0
 10 13  1  0  0  0  0
 13 14  1  0  0  0  0
 13 15  1  0  0  0  0
 13 16  1  0  0  0  0
 16 17  1  0  0  0  0
 16 18  1  0  0  0  0
 16 19  1  0  0  0  0
 19 20  1  0  0  0  0
 19 21  1  0  0  0  0
 19 22  1  0  0  0  0
M  END
> <VConfSearch Rank>
653

> <Conf_Id>
6

> <Delta U+W>
2.118

> <U+W>
-51.042

> <U>
10.045

> <W>
-61.086

> <W(PB)>
-63.356

> <W(SA)>
2.270

> <Valence>
10.100

> <Coulomb>
-0.883

> <VdW>
0.828

> <VdW6>
-8.177

> <VdW12>
9.004

> <Bond>
0.182

> <Angle>
2.988

> <Pdih>
6.930

> <Idih>
0.001

> <Tether>
0.000

$$$$
VeraChem MOL file


 22 21  0  0  0  0  0  0  0  0999 V2000     
   17.8172   20.9013   22.0629 C   0  0  0  0  0  0  0  0  0  0  0  0
   18.4424   21.8802   21.7046 O   0  5  0  0  0  0  0  0  0  0  0  0
   17.2298   20.8329   23.1246 O   0  0  0  0  0  0  0  0  0  0  0  0
   17.7036   19.7210   21.0999 C   0  0  0  0  0  0  0  0  0  0  0  0
   17.1673   20.0926   20.2191 H   0  0  0  0  0  0  0  0  0  0  0  0
   17.0672   18.9511   21.5529 H   0  0  0  0  0  0  0  0  0  0  0  0
   19.0556   19.1028   20.6450 C   0  0  0  0  0  0  0  0  0  0  0  0
   18.8778   18.5458   19.7153 H   0  0  0  0  0  0  0  0  0  0  0  0
   19.7650   19.9016   20.3874 H   0  0  0  0  0  0  0  0  0  0  0  0
   19.6994   18.1286   21.6625 C   0  0  0  0  0  0  0  0  0  0  0  0
   20.5550   17.6415   21.1750 H   0  0  0  0  0  0  0  0  0  0  0  0
   18.9882   17.3284   21.9090 H   0  0  0  0  0  0  0  0  0  0  0  0
   20.1889   18.8070   22.9620 C   0  0  0  0  0  0  0  0  0  0  0  0
   20.8189   19.6717   22.7121 H   0  0  0  0  0  0  0  0  0  0  0  0
   19.3308   19.1880   23.5300 H   0  0  0  0  0  0  0  0  0  0  0  0
   20.9834   17.8282   23.8522 C   0  0  0  0  0  0  0  0  0  0  0  0
   21.8520   17.4446   23.2992 H   0  0  0  0  0  0  0  0  0  0  0  0
   20.3550   16.9619   24.1015 H   0  0  0  0  0  0  0  0  0  0  0  0
   21.4628   18.5046   25.1523 C   0  0  0  0  0  0  0  0  0  0  0  0
   22.1192   19.3567   24.9323 H   0  0  0  0  0  0  0  0  0  0  0  0
   22.0245   17.7950   25.7735 H   0  0  0  0  0  0  0  0  0  0  0  0
   20.6115   18.8710   25.7409 H   0  0  0  0  0  0  0  0  0  0  0  0
  1  2  1  0  0  0  0
  1  3  2  0  0  0  0
  1  4  1  0  0  0  0
  4  5  1  0  0  0  0
  4  6  1  0  0  0  0
  4  7  1  0  0  0  0
  7  8  1  0  0  0  0
  7  9  1  0  0  0  0
  7 10  1  0  0  0  0
 10 11  1  0  0  0  0
 10 12  1  0  0  0  0
 10 13  1  0  0  0  0
 13 14  1  0  0  0  0
 13 15  1  0  0  0  0
 13 16  1  0  0  0  0
 16 17  1  0  0  0  0
 16 18  1  0  0  0  0
 16 19  1  0  0  0  0
 19 20  1  0  0  0  0
 19 21  1  0  0  0  0
 19 22  1  0  0  0  0
M  END
> <VConfSearch Rank>
654

> <Conf_Id>
8

> <Delta U+W>
1.886

> <U+W>
-51.274

> <U>
11.237

> <W>
-62.510

> <W(PB)>
-64.777

> <W(SA)>
2.267

> <Valence>
9.029

> <Coulomb>
1.667

> <VdW>
0.540

> <VdW6>
-8.825

> <VdW12>
9.365

> <Bond>
0.186

> <Angle>
3.195

> <Pdih>
5.642

> <Idih>
0.007

> <Tether>
0.000

$$$$
VeraChem MOL file


 22 21  0  0  0  0  0  0  0  0999 V2000     
   22.3655   17.5481   23.0793 C   0  0  0  0  0  0  0  0  0  0  0  0
   22.8998   18.6359   23.1681 O   0  5  0  0  0  0  0  0  0  0  0  0
   22.8367   16.6167   22.4565 O   0  0  0  0  0  0  0  0  0  0  0  0
   21.0459   17.3278   23.8136 C   0  0  0  0  0  0  0  0  0  0  0  0
   20.9053   18.1403   24.5353 H   0  0  0  0  0  0  0  0  0  0  0  0
   21.1499   16.4079   24.4008 H   0  0  0  0  0  0  0  0  0  0  0  0
   19.8115   17.2023   22.8789 C   0  0  0  0  0  0  0  0  0  0  0  0
   19.9540   16.3306   22.2253 H   0  0  0  0  0  0  0  0  0  0  0  0
   18.9206   16.9893   23.4849 H   0  0  0  0  0  0  0  0  0  0  0  0
   19.5419   18.4459   21.9961 C   0  0  0  0  0  0  0  0  0  0  0  0
   18.7135   18.2060   21.3176 H   0  0  0  0  0  0  0  0  0  0  0  0
   20.4152   18.6458   21.3601 H   0  0  0  0  0  0  0  0  0  0  0  0
   19.1912   19.7154   22.8102 C   0  0  0  0  0  0  0  0  0  0  0  0
   18.3305   19.5137   23.4621 H   0  0  0  0  0  0  0  0  0  0  0  0
   20.0322   19.9669   23.4693 H   0  0  0  0  0  0  0  0  0  0  0  0
   18.8937   20.9492   21.9263 C   0  0  0  0  0  0  0  0  0  0  0  0
   19.7472   21.1438   21.2622 H   0  0  0  0  0  0  0  0  0  0  0  0
   18.7986   21.8309   22.5749 H   0  0  0  0  0  0  0  0  0  0  0  0
   17.6033   20.8093   21.0896 C   0  0  0  0  0  0  0  0  0  0  0  0
   17.6953   20.0151   20.3385 H   0  0  0  0  0  0  0  0  0  0  0  0
   17.3882   21.7450   20.5576 H   0  0  0  0  0  0  0  0  0  0  0  0
   16.7423   20.5798   21.7308 H   0  0  0  0  0  0  0  0  0  0  0  0
  1  2  1  0  0  0  0
  1  3  2  0  0  0  0
  1  4  1  0  0  0  0
  4  5  1  0  0  0  0
  4  6  1  0  0  0  0
  4  7  1  0  0  0  0
  7  8  1  0  0  0  0
  7  9  1  0  0  0  0
  7 10  1  0  0  0  0
 10 11  1  0  0  0  0
 10 12  1  0  0  0  0
 10 13  1  0  0  0  0
 13 14  1  0  0  0  0
 13 15  1  0  0  0  0
 13 16  1  0  0  0  0
 16 17  1  0  0  0  0
 16 18  1  0  0  0  0
 16 19  1  0  0  0  0
 19 20  1  0  0  0  0
 19 21  1  0  0  0  0
 19 22  1  0  0  0  0
M  END
> <VConfSearch Rank>
655

> <Conf_Id>
93

> <Delta U+W>
1.836

> <U+W>
-51.323

> <U>
10.427

> <W>
-61.751

> <W(PB)>
-63.980

> <W(SA)>
2.230

> <Valence>
8.446

> <Coulomb>
1.306

> <VdW>
0.676

> <VdW6>
-8.928

> <VdW12>
9.604

> <Bond>
0.209

> <Angle>
3.066

> <Pdih>
5.170

> <Idih>
0.001

> <Tether>
0.000

$$$$
VeraChem MOL file


 22 21  0  0  0  0  0  0  0  0999 V2000     
   19.6305   17.3739   19.8987 C   0  0  0  0  0  0  0  0  0  0  0  0
   19.2566   16.2185   19.8487 O   0  5  0  0  0  0  0  0  0  0  0  0
   20.7629   17.7258   19.6327 O   0  0  0  0  0  0  0  0  0  0  0  0
   18.6131   18.4427   20.2880 C   0  0  0  0  0  0  0  0  0  0  0  0
   17.7253   18.2896   19.6633 H   0  0  0  0  0  0  0  0  0  0  0  0
   19.0149   19.4256   20.0176 H   0  0  0  0  0  0  0  0  0  0  0  0
   18.1983   18.4105   21.7846 C   0  0  0  0  0  0  0  0  0  0  0  0
   17.4260   19.1712   21.9611 H   0  0  0  0  0  0  0  0  0  0  0  0
   17.7281   17.4404   21.9972 H   0  0  0  0  0  0  0  0  0  0  0  0
   19.3636   18.6264   22.7817 C   0  0  0  0  0  0  0  0  0  0  0  0
   20.1252   17.8480   22.6364 H   0  0  0  0  0  0  0  0  0  0  0  0
   18.9703   18.4887   23.7967 H   0  0  0  0  0  0  0  0  0  0  0  0
   20.0211   20.0236   22.6680 C   0  0  0  0  0  0  0  0  0  0  0  0
   20.4356   20.1479   21.6592 H   0  0  0  0  0  0  0  0  0  0  0  0
   19.2592   20.8049   22.7931 H   0  0  0  0  0  0  0  0  0  0  0  0
   21.1654   20.2484   23.6839 C   0  0  0  0  0  0  0  0  0  0  0  0
   21.6679   21.1952   23.4428 H   0  0  0  0  0  0  0  0  0  0  0  0
   21.9213   19.4590   23.5713 H   0  0  0  0  0  0  0  0  0  0  0  0
   20.6836   20.3038   25.1501 C   0  0  0  0  0  0  0  0  0  0  0  0
   20.2823   19.3370   25.4782 H   0  0  0  0  0  0  0  0  0  0  0  0
   19.9017   21.0635   25.2784 H   0  0  0  0  0  0  0  0  0  0  0  0
   21.5164   20.5603   25.8177 H   0  0  0  0  0  0  0  0  0  0  0  0
  1  2  1  0  0  0  0
  1  3  2  0  0  0  0
  1  4  1  0  0  0  0
  4  5  1  0  0  0  0
  4  6  1  0  0  0  0
  4  7  1  0  0  0  0
  7  8  1  0  0  0  0
  7  9  1  0  0  0  0
  7 10  1  0  0  0  0
 10 11  1  0  0  0  0
 10 12  1  0  0  0  0
 10 13  1  0  0  0  0
 13 14  1  0  0  0  0
 13 15  1  0  0  0  0
 13 16  1  0  0  0  0
 16 17  1  0  0  0  0
 16 18  1  0  0  0  0
 16 19  1  0  0  0  0
 19 20  1  0  0  0  0
 19 21  1  0  0  0  0
 19 22  1  0  0  0  0
M  END
> <VConfSearch Rank>
656

> <Conf_Id>
70

> <Delta U+W>
1.803

> <U+W>
-51.356

> <U>
10.428

> <W>
-61.784

> <W(PB)>
-64.014

> <W(SA)>
2.230

> <Valence>
8.445

> <Coulomb>
1.306

> <VdW>
0.676

> <VdW6>
-8.929

> <VdW12>
9.605

> <Bond>
0.209

> <Angle>
3.066

> <Pdih>
5.170

> <Idih>
0.001

> <Tether>
0.000

$$$$
VeraChem MOL file


 22 21  0  0  0  0  0  0  0  0999 V2000     
   16.9003   19.6674   24.0830 C   0  0  0  0  0  0  0  0  0  0  0  0
   16.3601   20.5390   23.4308 O   0  5  0  0  0  0  0  0  0  0  0  0
   17.1860   19.7864   25.2582 O   0  0  0  0  0  0  0  0  0  0  0  0
   17.2173   18.3442   23.3918 C   0  0  0  0  0  0  0  0  0  0  0  0
   16.3336   18.0578   22.8096 H   0  0  0  0  0  0  0  0  0  0  0  0
   17.3555   17.5727   24.1591 H   0  0  0  0  0  0  0  0  0  0  0  0
   18.4554   18.4015   22.4597 C   0  0  0  0  0  0  0  0  0  0  0  0
   18.5312   17.4546   21.9085 H   0  0  0  0  0  0  0  0  0  0  0  0
   18.3023   19.1925   21.7137 H   0  0  0  0  0  0  0  0  0  0  0  0
   19.7707   18.6467   23.2372 C   0  0  0  0  0  0  0  0  0  0  0  0
   19.8592   17.8960   24.0344 H   0  0  0  0  0  0  0  0  0  0  0  0
   19.7324   19.6247   23.7365 H   0  0  0  0  0  0  0  0  0  0  0  0
   21.0349   18.5709   22.3486 C   0  0  0  0  0  0  0  0  0  0  0  0
   21.9198   18.6325   22.9967 H   0  0  0  0  0  0  0  0  0  0  0  0
   21.0796   17.5909   21.8542 H   0  0  0  0  0  0  0  0  0  0  0  0
   21.1105   19.6932   21.2888 C   0  0  0  0  0  0  0  0  0  0  0  0
   21.0125   20.6720   21.7783 H   0  0  0  0  0  0  0  0  0  0  0  0
   20.2750   19.6032   20.5822 H   0  0  0  0  0  0  0  0  0  0  0  0
   22.4376   19.6426   20.5053 C   0  0  0  0  0  0  0  0  0  0  0  0
   23.2963   19.7686   21.1777 H   0  0  0  0  0  0  0  0  0  0  0  0
   22.4745   20.4432   19.7552 H   0  0  0  0  0  0  0  0  0  0  0  0
   22.5486   18.6833   19.9831 H   0  0  0  0  0  0  0  0  0  0  0  0
  1  2  1  0  0  0  0
  1  3  2  0  0  0  0
  1  4  1  0  0  0  0
  4  5  1  0  0  0  0
  4  6  1  0  0  0  0
  4  7  1  0  0  0  0
  7  8  1  0  0  0  0
  7  9  1  0  0  0  0
  7 10  1  0  0  0  0
 10 11  1  0  0  0  0
 10 12  1  0  0  0  0
 10 13  1  0  0  0  0
 13 14  1  0  0  0  0
 13 15  1  0  0  0  0
 13 16  1  0  0  0  0
 16 17  1  0  0  0  0
 16 18  1  0  0  0  0
 16 19  1  0  0  0  0
 19 20  1  0  0  0  0
 19 21  1  0  0  0  0
 19 22  1  0  0  0  0
M  END
> <VConfSearch Rank>
657

> <Conf_Id>
85

> <Delta U+W>
0.707

> <U+W>
-52.452

> <U>
8.925

> <W>
-61.378

> <W(PB)>
-63.661

> <W(SA)>
2.283

> <Valence>
7.881

> <Coulomb>
0.349

> <VdW>
0.695

> <VdW6>
-8.049

> <VdW12>
8.743

> <Bond>
0.156

> <Angle>
2.660

> <Pdih>
5.064

> <Idih>
0.001

> <Tether>
0.000

$$$$
VeraChem MOL file


 22 21  0  0  0  0  0  0  0  0999 V2000     
   21.1886   18.3883   25.4040 C   0  0  0  0  0  0  0  0  0  0  0  0
   20.7666   17.3820   25.9389 O   0  5  0  0  0  0  0  0  0  0  0  0
   22.3675   18.6793   25.3547 O   0  0  0  0  0  0  0  0  0  0  0  0
   20.1831   19.3521   24.7800 C   0  0  0  0  0  0  0  0  0  0  0  0
   20.4542   20.3632   25.1059 H   0  0  0  0  0  0  0  0  0  0  0  0
   19.1901   19.1405   25.1947 H   0  0  0  0  0  0  0  0  0  0  0  0
   20.1376   19.3036   23.2304 C   0  0  0  0  0  0  0  0  0  0  0  0
   19.5101   20.1315   22.8772 H   0  0  0  0  0  0  0  0  0  0  0  0
   21.1471   19.4704   22.8300 H   0  0  0  0  0  0  0  0  0  0  0  0
   19.5722   17.9684   22.6931 C   0  0  0  0  0  0  0  0  0  0  0  0
   18.5327   17.8512   23.0283 H   0  0  0  0  0  0  0  0  0  0  0  0
   20.1331   17.1345   23.1368 H   0  0  0  0  0  0  0  0  0  0  0  0
   19.6359   17.8249   21.1517 C   0  0  0  0  0  0  0  0  0  0  0  0
   20.6812   17.8475   20.8144 H   0  0  0  0  0  0  0  0  0  0  0  0
   19.2627   16.8232   20.8983 H   0  0  0  0  0  0  0  0  0  0  0  0
   18.7961   18.8641   20.3677 C   0  0  0  0  0  0  0  0  0  0  0  0
   17.9463   19.2043   20.9754 H   0  0  0  0  0  0  0  0  0  0  0  0
   18.3630   18.3721   19.4858 H   0  0  0  0  0  0  0  0  0  0  0  0
   19.6248   20.0735   19.8800 C   0  0  0  0  0  0  0  0  0  0  0  0
   20.0762   20.6224   20.7141 H   0  0  0  0  0  0  0  0  0  0  0  0
   18.9899   20.7739   19.3222 H   0  0  0  0  0  0  0  0  0  0  0  0
   20.4330   19.7485   19.2120 H   0  0  0  0  0  0  0  0  0  0  0  0
  1  2  1  0  0  0  0
  1  3  2  0  0  0  0
  1  4  1  0  0  0  0
  4  5  1  0  0  0  0
  4  6  1  0  0  0  0
  4  7  1  0  0  0  0
  7  8  1  0  0  0  0
  7  9  1  0  0  0  0
  7 10  1  0  0  0  0
 10 11  1  0  0  0  0
 10 12  1  0  0  0  0
 10 13  1  0  0  0  0
 13 14  1  0  0  0  0
 13 15  1  0  0  0  0
 13 16  1  0  0  0  0
 16 17  1  0  0  0  0
 16 18  1  0  0  0  0
 16 19  1  0  0  0  0
 19 20  1  0  0  0  0
 19 21  1  0  0  0  0
 19 22  1  0  0  0  0
M  END
> <VConfSearch Rank>
658

> <Conf_Id>
82

> <Delta U+W>
3.438

> <U+W>
-49.721

> <U>
11.773

> <W>
-61.495

> <W(PB)>
-63.749

> <W(SA)>
2.254

> <Valence>
10.419

> <Coulomb>
0.565

> <VdW>
0.789

> <VdW6>
-8.847

> <VdW12>
9.636

> <Bond>
0.200

> <Angle>
3.187

> <Pdih>
7.032

> <Idih>
0.001

> <Tether>
0.000

$$$$
VeraChem MOL file


 22 21  0  0  0  0  0  0  0  0999 V2000     
   19.7813   21.6002   20.4230 C   0  0  0  0  0  0  0  0  0  0  0  0
   19.9304   22.5850   21.1194 O   0  5  0  0  0  0  0  0  0  0  0  0
   20.3502   21.4351   19.3619 O   0  0  0  0  0  0  0  0  0  0  0  0
   18.8084   20.5242   20.8975 C   0  0  0  0  0  0  0  0  0  0  0  0
   18.5281   19.9014   20.0394 H   0  0  0  0  0  0  0  0  0  0  0  0
   17.8965   21.0328   21.2319 H   0  0  0  0  0  0  0  0  0  0  0  0
   19.3563   19.6377   22.0463 C   0  0  0  0  0  0  0  0  0  0  0  0
   19.6768   20.2774   22.8801 H   0  0  0  0  0  0  0  0  0  0  0  0
   18.5373   19.0095   22.4185 H   0  0  0  0  0  0  0  0  0  0  0  0
   20.5279   18.7353   21.5946 C   0  0  0  0  0  0  0  0  0  0  0  0
   21.2999   19.3566   21.1204 H   0  0  0  0  0  0  0  0  0  0  0  0
   20.1756   18.0403   20.8202 H   0  0  0  0  0  0  0  0  0  0  0  0
   21.1930   17.9342   22.7420 C   0  0  0  0  0  0  0  0  0  0  0  0
   22.0386   17.3810   22.3108 H   0  0  0  0  0  0  0  0  0  0  0  0
   21.6313   18.6229   23.4771 H   0  0  0  0  0  0  0  0  0  0  0  0
   20.2621   16.9169   23.4479 C   0  0  0  0  0  0  0  0  0  0  0  0
   20.8491   16.0250   23.7071 H   0  0  0  0  0  0  0  0  0  0  0  0
   19.4774   16.5759   22.7586 H   0  0  0  0  0  0  0  0  0  0  0  0
   19.6324   17.4673   24.7470 C   0  0  0  0  0  0  0  0  0  0  0  0
   20.4102   17.7425   25.4712 H   0  0  0  0  0  0  0  0  0  0  0  0
   18.9921   16.7083   25.2147 H   0  0  0  0  0  0  0  0  0  0  0  0
   19.0172   18.3544   24.5588 H   0  0  0  0  0  0  0  0  0  0  0  0
  1  2  1  0  0  0  0
  1  3  2  0  0  0  0
  1  4  1  0  0  0  0
  4  5  1  0  0  0  0
  4  6  1  0  0  0  0
  4  7  1  0  0  0  0
  7  8  1  0  0  0  0
  7  9  1  0  0  0  0
  7 10  1  0  0  0  0
 10 11  1  0  0  0  0
 10 12  1  0  0  0  0
 10 13  1  0  0  0  0
 13 14  1  0  0  0  0
 13 15  1  0  0  0  0
 13 16  1  0  0  0  0
 16 17  1  0  0  0  0
 16 18  1  0  0  0  0
 16 19  1  0  0  0  0
 19 20  1  0  0  0  0
 19 21  1  0  0  0  0
 19 22  1  0  0  0  0
M  END
> <VConfSearch Rank>
659

> <Conf_Id>
94

> <Delta U+W>
3.471

> <U+W>
-49.688

> <U>
11.773

> <W>
-61.461

> <W(PB)>
-63.710

> <W(SA)>
2.248

> <Valence>
10.419

> <Coulomb>
0.566

> <VdW>
0.789

> <VdW6>
-8.847

> <VdW12>
9.636

> <Bond>
0.200

> <Angle>
3.187

> <Pdih>
7.032

> <Idih>
0.001

> <Tether>
0.000

$$$$
VeraChem MOL file


 22 21  0  0  0  0  0  0  0  0999 V2000     
   19.4997   21.6952   20.3380 C   0  0  0  0  0  0  0  0  0  0  0  0
   19.8245   22.8605   20.4526 O   0  5  0  0  0  0  0  0  0  0  0  0
   18.5561   21.3227   19.6690 O   0  0  0  0  0  0  0  0  0  0  0  0
   20.3089   20.6451   21.0906 C   0  0  0  0  0  0  0  0  0  0  0  0
   21.3487   20.9891   21.1434 H   0  0  0  0  0  0  0  0  0  0  0  0
   20.2996   19.7259   20.4939 H   0  0  0  0  0  0  0  0  0  0  0  0
   19.7621   20.3739   22.5160 C   0  0  0  0  0  0  0  0  0  0  0  0
   19.7068   21.3268   23.0601 H   0  0  0  0  0  0  0  0  0  0  0  0
   18.7310   20.0020   22.4495 H   0  0  0  0  0  0  0  0  0  0  0  0
   20.6323   19.3875   23.3347 C   0  0  0  0  0  0  0  0  0  0  0  0
   20.2078   19.2920   24.3427 H   0  0  0  0  0  0  0  0  0  0  0  0
   21.6299   19.8258   23.4728 H   0  0  0  0  0  0  0  0  0  0  0  0
   20.7941   17.9759   22.7116 C   0  0  0  0  0  0  0  0  0  0  0  0
   21.3653   18.0541   21.7774 H   0  0  0  0  0  0  0  0  0  0  0  0
   21.4100   17.3648   23.3851 H   0  0  0  0  0  0  0  0  0  0  0  0
   19.4698   17.2247   22.4286 C   0  0  0  0  0  0  0  0  0  0  0  0
   19.7080   16.2565   21.9674 H   0  0  0  0  0  0  0  0  0  0  0  0
   18.8735   17.7751   21.6886 H   0  0  0  0  0  0  0  0  0  0  0  0
   18.6262   16.9766   23.6976 C   0  0  0  0  0  0  0  0  0  0  0  0
   19.2091   16.4411   24.4582 H   0  0  0  0  0  0  0  0  0  0  0  0
   17.7425   16.3707   23.4593 H   0  0  0  0  0  0  0  0  0  0  0  0
   18.2752   17.9203   24.1336 H   0  0  0  0  0  0  0  0  0  0  0  0
  1  2  1  0  0  0  0
  1  3  2  0  0  0  0
  1  4  1  0  0  0  0
  4  5  1  0  0  0  0
  4  6  1  0  0  0  0
  4  7  1  0  0  0  0
  7  8  1  0  0  0  0
  7  9  1  0  0  0  0
  7 10  1  0  0  0  0
 10 11  1  0  0  0  0
 10 12  1  0  0  0  0
 10 13  1  0  0  0  0
 13 14  1  0  0  0  0
 13 15  1  0  0  0  0
 13 16  1  0  0  0  0
 16 17  1  0  0  0  0
 16 18  1  0  0  0  0
 16 19  1  0  0  0  0
 19 20  1  0  0  0  0
 19 21  1  0  0  0  0
 19 22  1  0  0  0  0
M  END
> <VConfSearch Rank>
660

> <Conf_Id>
56

> <Delta U+W>
0.853

> <U+W>
-52.307

> <U>
8.874

> <W>
-61.181

> <W(PB)>
-63.413

> <W(SA)>
2.232

> <Valence>
8.479

> <Coulomb>
-0.357

> <VdW>
0.753

> <VdW6>
-9.081

> <VdW12>
9.833

> <Bond>
0.221

> <Angle>
3.208

> <Pdih>
5.050

> <Idih>
0.000

> <Tether>
0.000

$$$$
VeraChem MOL file


 22 21  0  0  0  0  0  0  0  0999 V2000     
   17.2414   18.8661   25.2791 C   0  0  0  0  0  0  0  0  0  0  0  0
   16.3547   18.3640   24.6158 O   0  5  0  0  0  0  0  0  0  0  0  0
   17.1150   19.1417   26.4555 O   0  0  0  0  0  0  0  0  0  0  0  0
   18.5910   19.1779   24.6302 C   0  0  0  0  0  0  0  0  0  0  0  0
   19.3597   18.6450   25.2021 H   0  0  0  0  0  0  0  0  0  0  0  0
   18.7778   20.2500   24.7630 H   0  0  0  0  0  0  0  0  0  0  0  0
   18.7048   18.8079   23.1273 C   0  0  0  0  0  0  0  0  0  0  0  0
   18.5104   17.7338   23.0006 H   0  0  0  0  0  0  0  0  0  0  0  0
   17.9281   19.3405   22.5610 H   0  0  0  0  0  0  0  0  0  0  0  0
   20.0959   19.1553   22.5542 C   0  0  0  0  0  0  0  0  0  0  0  0
   20.8707   18.6218   23.1219 H   0  0  0  0  0  0  0  0  0  0  0  0
   20.2880   20.2295   22.6821 H   0  0  0  0  0  0  0  0  0  0  0  0
   20.2070   18.7866   21.0592 C   0  0  0  0  0  0  0  0  0  0  0  0
   20.0149   17.7124   20.9307 H   0  0  0  0  0  0  0  0  0  0  0  0
   19.4324   19.3199   20.4910 H   0  0  0  0  0  0  0  0  0  0  0  0
   21.5969   19.1334   20.4857 C   0  0  0  0  0  0  0  0  0  0  0  0
   22.3743   18.6000   21.0503 H   0  0  0  0  0  0  0  0  0  0  0  0
   21.7918   20.2076   20.6107 H   0  0  0  0  0  0  0  0  0  0  0  0
   21.7037   18.7637   18.9927 C   0  0  0  0  0  0  0  0  0  0  0  0
   21.5440   17.6880   18.8420 H   0  0  0  0  0  0  0  0  0  0  0  0
   22.6977   19.0169   18.6015 H   0  0  0  0  0  0  0  0  0  0  0  0
   20.9572   19.3076   18.3990 H   0  0  0  0  0  0  0  0  0  0  0  0
  1  2  1  0  0  0  0
  1  3  2  0  0  0  0
  1  4  1  0  0  0  0
  4  5  1  0  0  0  0
  4  6  1  0  0  0  0
  4  7  1  0  0  0  0
  7  8  1  0  0  0  0
  7  9  1  0  0  0  0
  7 10  1  0  0  0  0
 10 11  1  0  0  0  0
 10 12  1  0  0  0  0
 10 13  1  0  0  0  0
 13 14  1  0  0  0  0
 13 15  1  0  0  0  0
 13 16  1  0  0  0  0
 16 17  1  0  0  0  0
 16 18  1  0  0  0  0
 16 19  1  0  0  0  0
 19 20  1  0  0  0  0
 19 21  1  0  0  0  0
 19 22  1  0  0  0  0
M  END
> <VConfSearch Rank>
661

> <Conf_Id>
0

> <Delta U+W>
0.000

> <U+W>
-53.159

> <U>
6.763

> <W>
-59.922

> <W(PB)>
-62.256

> <W(SA)>
2.334

> <Valence>
7.600

> <Coulomb>
-2.139

> <VdW>
1.302

> <VdW6>
-6.786

> <VdW12>
8.088

> <Bond>
0.134

> <Angle>
2.720

> <Pdih>
4.746

> <Idih>
0.000

> <Tether>
0.000

$$$$
VeraChem MOL file


 22 21  0  0  0  0  0  0  0  0999 V2000     
   21.9075   15.9163   23.7020 C   0  0  0  0  0  0  0  0  0  0  0  0
   23.0467   16.2006   24.0148 O   0  5  0  0  0  0  0  0  0  0  0  0
   21.5764   14.8236   23.2864 O   0  0  0  0  0  0  0  0  0  0  0  0
   20.8386   16.9973   23.8160 C   0  0  0  0  0  0  0  0  0  0  0  0
   21.0986   17.6458   24.6613 H   0  0  0  0  0  0  0  0  0  0  0  0
   19.8868   16.5109   24.0613 H   0  0  0  0  0  0  0  0  0  0  0  0
   20.6920   17.8373   22.5233 C   0  0  0  0  0  0  0  0  0  0  0  0
   21.6563   18.3069   22.2843 H   0  0  0  0  0  0  0  0  0  0  0  0
   20.4446   17.1720   21.6844 H   0  0  0  0  0  0  0  0  0  0  0  0
   19.6044   18.9241   22.6642 C   0  0  0  0  0  0  0  0  0  0  0  0
   19.8541   19.5866   23.5044 H   0  0  0  0  0  0  0  0  0  0  0  0
   18.6420   18.4514   22.9043 H   0  0  0  0  0  0  0  0  0  0  0  0
   19.4604   19.7597   21.3741 C   0  0  0  0  0  0  0  0  0  0  0  0
   20.4226   20.2325   21.1336 H   0  0  0  0  0  0  0  0  0  0  0  0
   19.2107   19.0975   20.5337 H   0  0  0  0  0  0  0  0  0  0  0  0
   18.3736   20.8461   21.5141 C   0  0  0  0  0  0  0  0  0  0  0  0
   18.6210   21.5118   22.3527 H   0  0  0  0  0  0  0  0  0  0  0  0
   17.4091   20.3768   21.7527 H   0  0  0  0  0  0  0  0  0  0  0  0
   18.2330   21.6783   20.2238 C   0  0  0  0  0  0  0  0  0  0  0  0
   17.9546   21.0414   19.3740 H   0  0  0  0  0  0  0  0  0  0  0  0
   19.1757   22.1848   19.9784 H   0  0  0  0  0  0  0  0  0  0  0  0
   17.4566   22.4455   20.3409 H   0  0  0  0  0  0  0  0  0  0  0  0
  1  2  1  0  0  0  0
  1  3  2  0  0  0  0
  1  4  1  0  0  0  0
  4  5  1  0  0  0  0
  4  6  1  0  0  0  0
  4  7  1  0  0  0  0
  7  8  1  0  0  0  0
  7  9  1  0  0  0  0
  7 10  1  0  0  0  0
 10 11  1  0  0  0  0
 10 12  1  0  0  0  0
 10 13  1  0  0  0  0
 13 14  1  0  0  0  0
 13 15  1  0  0  0  0
 13 16  1  0  0  0  0
 16 17  1  0  0  0  0
 16 18  1  0  0  0  0
 16 19  1  0  0  0  0
 19 20  1  0  0  0  0
 19 21  1  0  0  0  0
 19 22  1  0  0  0  0
M  END
> <VConfSearch Rank>
662

> <Conf_Id>
10

> <Delta U+W>
-1.291

> <U+W>
-54.451

> <U>
5.779

> <W>
-60.230

> <W(PB)>
-62.557

> <W(SA)>
2.328

> <Valence>
7.101

> <Coulomb>
-2.079

> <VdW>
0.757

> <VdW6>
-6.496

> <VdW12>
7.253

> <Bond>
0.100

> <Angle>
2.262

> <Pdih>
4.738

> <Idih>
0.001

> <Tether>
0.000

$$$$
VeraChem MOL file


 22 21  0  0  0  0  0  0  0  0999 V2000     
   16.6404   21.0733   22.4828 C   0  0  0  0  0  0  0  0  0  0  0  0
   15.7613   20.6871   21.7383 O   0  5  0  0  0  0  0  0  0  0  0  0
   16.4299   21.6670   23.5219 O   0  0  0  0  0  0  0  0  0  0  0  0
   18.0870   20.7782   22.1027 C   0  0  0  0  0  0  0  0  0  0  0  0
   18.7119   21.5976   22.4779 H   0  0  0  0  0  0  0  0  0  0  0  0
   18.1608   20.7889   21.0086 H   0  0  0  0  0  0  0  0  0  0  0  0
   18.5911   19.4238   22.6592 C   0  0  0  0  0  0  0  0  0  0  0  0
   18.4980   19.4245   23.7541 H   0  0  0  0  0  0  0  0  0  0  0  0
   17.9478   18.6154   22.2847 H   0  0  0  0  0  0  0  0  0  0  0  0
   20.0574   19.1485   22.2608 C   0  0  0  0  0  0  0  0  0  0  0  0
   20.6983   19.9569   22.6382 H   0  0  0  0  0  0  0  0  0  0  0  0
   20.1403   19.1571   21.1661 H   0  0  0  0  0  0  0  0  0  0  0  0
   20.5546   17.7938   22.8155 C   0  0  0  0  0  0  0  0  0  0  0  0
   20.3993   17.7741   23.9029 H   0  0  0  0  0  0  0  0  0  0  0  0
   19.9474   16.9781   22.3998 H   0  0  0  0  0  0  0  0  0  0  0  0
   22.0498   17.5233   22.5283 C   0  0  0  0  0  0  0  0  0  0  0  0
   22.3491   16.6056   23.0531 H   0  0  0  0  0  0  0  0  0  0  0  0
   22.6610   18.3342   22.9483 H   0  0  0  0  0  0  0  0  0  0  0  0
   22.3641   17.3611   21.0253 C   0  0  0  0  0  0  0  0  0  0  0  0
   23.4162   17.0835   20.8810 H   0  0  0  0  0  0  0  0  0  0  0  0
   22.1889   18.2946   20.4761 H   0  0  0  0  0  0  0  0  0  0  0  0
   21.7426   16.5752   20.5765 H   0  0  0  0  0  0  0  0  0  0  0  0
  1  2  1  0  0  0  0
  1  3  2  0  0  0  0
  1  4  1  0  0  0  0
  4  5  1  0  0  0  0
  4  6  1  0  0  0  0
  4  7  1  0  0  0  0
  7  8  1  0  0  0  0
  7  9  1  0  0  0  0
  7 10  1  0  0  0  0
 10 11  1  0  0  0  0
 10 12  1  0  0  0  0
 10 13  1  0  0  0  0
 13 14  1  0  0  0  0
 13 15  1  0  0  0  0
 13 16  1  0  0  0  0
 16 17  1  0  0  0  0
 16 18  1  0  0  0  0
 16 19  1  0  0  0  0
 19 20  1  0  0  0  0
 19 21  1  0  0  0  0
 19 22  1  0  0  0  0
M  END
> <VConfSearch Rank>
663

> <Conf_Id>
37

> <Delta U+W>
-0.345

> <U+W>
-53.504

> <U>
6.751

> <W>
-60.255

> <W(PB)>
-62.592

> <W(SA)>
2.336

> <Valence>
7.602

> <Coulomb>
-1.744

> <VdW>
0.894

> <VdW6>
-7.110

> <VdW12>
8.004

> <Bond>
0.131

> <Angle>
2.489

> <Pdih>
4.982

> <Idih>
0.001

> <Tether>
0.000

$$$$
VeraChem MOL file


 22 21  0  0  0  0  0  0  0  0999 V2000     
   18.9007   21.9731   24.5567 C   0  0  0  0  0  0  0  0  0  0  0  0
   19.2762   23.0436   24.1214 O   0  5  0  0  0  0  0  0  0  0  0  0
   18.7491   21.7436   25.7402 O   0  0  0  0  0  0  0  0  0  0  0  0
   18.6252   20.8491   23.5643 C   0  0  0  0  0  0  0  0  0  0  0  0
   18.2532   21.2981   22.6355 H   0  0  0  0  0  0  0  0  0  0  0  0
   17.8181   20.2269   23.9695 H   0  0  0  0  0  0  0  0  0  0  0  0
   19.8750   19.9816   23.2754 C   0  0  0  0  0  0  0  0  0  0  0  0
   20.6776   20.6209   22.8821 H   0  0  0  0  0  0  0  0  0  0  0  0
   20.2427   19.5506   24.2169 H   0  0  0  0  0  0  0  0  0  0  0  0
   19.5700   18.8512   22.2686 C   0  0  0  0  0  0  0  0  0  0  0  0
   19.1969   19.2920   21.3350 H   0  0  0  0  0  0  0  0  0  0  0  0
   18.7691   18.2125   22.6653 H   0  0  0  0  0  0  0  0  0  0  0  0
   20.8217   17.9906   21.9806 C   0  0  0  0  0  0  0  0  0  0  0  0
   21.6074   18.6168   21.5362 H   0  0  0  0  0  0  0  0  0  0  0  0
   21.2238   17.6151   22.9315 H   0  0  0  0  0  0  0  0  0  0  0  0
   20.5385   16.7833   21.0567 C   0  0  0  0  0  0  0  0  0  0  0  0
   19.7575   16.1510   21.5011 H   0  0  0  0  0  0  0  0  0  0  0  0
   21.4439   16.1635   20.9992 H   0  0  0  0  0  0  0  0  0  0  0  0
   20.1245   17.1919   19.6264 C   0  0  0  0  0  0  0  0  0  0  0  0
   20.8770   17.8498   19.1723 H   0  0  0  0  0  0  0  0  0  0  0  0
   19.1608   17.7163   19.6224 H   0  0  0  0  0  0  0  0  0  0  0  0
   20.0223   16.3047   18.9883 H   0  0  0  0  0  0  0  0  0  0  0  0
  1  2  1  0  0  0  0
  1  3  2  0  0  0  0
  1  4  1  0  0  0  0
  4  5  1  0  0  0  0
  4  6  1  0  0  0  0
  4  7  1  0  0  0  0
  7  8  1  0  0  0  0
  7  9  1  0  0  0  0
  7 10  1  0  0  0  0
 10 11  1  0  0  0  0
 10 12  1  0  0  0  0
 10 13  1  0  0  0  0
 13 14  1  0  0  0  0
 13 15  1  0  0  0  0
 13 16  1  0  0  0  0
 16 17  1  0  0  0  0
 16 18  1  0  0  0  0
 16 19  1  0  0  0  0
 19 20  1  0  0  0  0
 19 21  1  0  0  0  0
 19 22  1  0  0  0  0
M  END
> <VConfSearch Rank>
664

> <Conf_Id>
38

> <Delta U+W>
-0.439

> <U+W>
-53.598

> <U>
6.751

> <W>
-60.350

> <W(PB)>
-62.659

> <W(SA)>
2.309

> <Valence>
7.602

> <Coulomb>
-1.744

> <VdW>
0.893

> <VdW6>
-7.110

> <VdW12>
8.004

> <Bond>
0.131

> <Angle>
2.489

> <Pdih>
4.981

> <Idih>
0.001

> <Tether>
0.000

$$$$
VeraChem MOL file


 22 21  0  0  0  0  0  0  0  0999 V2000     
   21.2698   21.3910   19.6582 C   0  0  0  0  0  0  0  0  0  0  0  0
   20.9422   22.5580   19.5718 O   0  5  0  0  0  0  0  0  0  0  0  0
   21.7822   20.7672   18.7499 O   0  0  0  0  0  0  0  0  0  0  0  0
   21.0026   20.6634   20.9710 C   0  0  0  0  0  0  0  0  0  0  0  0
   21.0880   21.3914   21.7866 H   0  0  0  0  0  0  0  0  0  0  0  0
   21.7993   19.9242   21.1095 H   0  0  0  0  0  0  0  0  0  0  0  0
   19.6098   19.9819   21.0059 C   0  0  0  0  0  0  0  0  0  0  0  0
   18.8451   20.7339   20.7668 H   0  0  0  0  0  0  0  0  0  0  0  0
   19.5531   19.2206   20.2156 H   0  0  0  0  0  0  0  0  0  0  0  0
   19.2647   19.3438   22.3728 C   0  0  0  0  0  0  0  0  0  0  0  0
   18.2171   19.0186   22.3406 H   0  0  0  0  0  0  0  0  0  0  0  0
   19.3305   20.1056   23.1615 H   0  0  0  0  0  0  0  0  0  0  0  0
   20.1665   18.1379   22.7341 C   0  0  0  0  0  0  0  0  0  0  0  0
   20.1020   17.3771   21.9444 H   0  0  0  0  0  0  0  0  0  0  0  0
   21.2141   18.4624   22.7696 H   0  0  0  0  0  0  0  0  0  0  0  0
   19.8183   17.4978   24.0984 C   0  0  0  0  0  0  0  0  0  0  0  0
   19.8705   18.2585   24.8896 H   0  0  0  0  0  0  0  0  0  0  0  0
   20.5834   16.7470   24.3395 H   0  0  0  0  0  0  0  0  0  0  0  0
   18.4326   16.8168   24.1217 C   0  0  0  0  0  0  0  0  0  0  0  0
   17.6233   17.5483   24.0065 H   0  0  0  0  0  0  0  0  0  0  0  0
   18.2766   16.2978   25.0763 H   0  0  0  0  0  0  0  0  0  0  0  0
   18.3453   16.0758   23.3164 H   0  0  0  0  0  0  0  0  0  0  0  0
  1  2  1  0  0  0  0
  1  3  2  0  0  0  0
  1  4  1  0  0  0  0
  4  5  1  0  0  0  0
  4  6  1  0  0  0  0
  4  7  1  0  0  0  0
  7  8  1  0  0  0  0
  7  9  1  0  0  0  0
  7 10  1  0  0  0  0
 10 11  1  0  0  0  0
 10 12  1  0  0  0  0
 10 13  1  0  0  0  0
 13 14  1  0  0  0  0
 13 15  1  0  0  0  0
 13 16  1  0  0  0  0
 16 17  1  0  0  0  0
 16 18  1  0  0  0  0
 16 19  1  0  0  0  0
 19 20  1  0  0  0  0
 19 21  1  0  0  0  0
 19 22  1  0  0  0  0
M  END
> <VConfSearch Rank>
665

> <Conf_Id>
60

> <Delta U+W>
0.386

> <U+W>
-52.773

> <U>
7.689

> <W>
-60.463

> <W(PB)>
-62.772

> <W(SA)>
2.309

> <Valence>
8.197

> <Coulomb>
-1.561

> <VdW>
1.053

> <VdW6>
-7.737

> <VdW12>
8.790

> <Bond>
0.181

> <Angle>
2.780

> <Pdih>
5.235

> <Idih>
0.001

> <Tether>
0.000

$$$$
VeraChem MOL file


 22 21  0  0  0  0  0  0  0  0999 V2000     
   18.8594   22.1714   20.5686 C   0  0  0  0  0  0  0  0  0  0  0  0
   19.8507   22.7721   20.2038 O   0  5  0  0  0  0  0  0  0  0  0  0
   17.7695   22.6912   20.7037 O   0  0  0  0  0  0  0  0  0  0  0  0
   18.9956   20.6888   20.8965 C   0  0  0  0  0  0  0  0  0  0  0  0
   19.7541   20.2685   20.2268 H   0  0  0  0  0  0  0  0  0  0  0  0
   18.0436   20.1992   20.6589 H   0  0  0  0  0  0  0  0  0  0  0  0
   19.3722   20.4350   22.3796 C   0  0  0  0  0  0  0  0  0  0  0  0
   20.3502   20.8879   22.5932 H   0  0  0  0  0  0  0  0  0  0  0  0
   18.6446   20.9528   23.0199 H   0  0  0  0  0  0  0  0  0  0  0  0
   19.3934   18.9370   22.7674 C   0  0  0  0  0  0  0  0  0  0  0  0
   18.4170   18.4855   22.5449 H   0  0  0  0  0  0  0  0  0  0  0  0
   19.5271   18.8698   23.8545 H   0  0  0  0  0  0  0  0  0  0  0  0
   20.5136   18.1344   22.0611 C   0  0  0  0  0  0  0  0  0  0  0  0
   20.3793   18.1981   20.9739 H   0  0  0  0  0  0  0  0  0  0  0  0
   21.4897   18.5871   22.2821 H   0  0  0  0  0  0  0  0  0  0  0  0
   20.5372   16.6382   22.4524 C   0  0  0  0  0  0  0  0  0  0  0  0
   21.2628   16.1189   21.8113 H   0  0  0  0  0  0  0  0  0  0  0  0
   19.5586   16.1843   22.2435 H   0  0  0  0  0  0  0  0  0  0  0  0
   20.9192   16.3954   23.9288 C   0  0  0  0  0  0  0  0  0  0  0  0
   21.8790   16.8705   24.1697 H   0  0  0  0  0  0  0  0  0  0  0  0
   21.0153   15.3202   24.1280 H   0  0  0  0  0  0  0  0  0  0  0  0
   20.1573   16.7916   24.6114 H   0  0  0  0  0  0  0  0  0  0  0  0
  1  2  1  0  0  0  0
  1  3  2  0  0  0  0
  1  4  1  0  0  0  0
  4  5  1  0  0  0  0
  4  6  1  0  0  0  0
  4  7  1  0  0  0  0
  7  8  1  0  0  0  0
  7  9  1  0  0  0  0
  7 10  1  0  0  0  0
 10 11  1  0  0  0  0
 10 12  1  0  0  0  0
 10 13  1  0  0  0  0
 13 14  1  0  0  0  0
 13 15  1  0  0  0  0
 13 16  1  0  0  0  0
 16 17  1  0  0  0  0
 16 18  1  0  0  0  0
 16 19  1  0  0  0  0
 19 20  1  0  0  0  0
 19 21  1  0  0  0  0
 19 22  1  0  0  0  0
M  END
> <VConfSearch Rank>
666

> <Conf_Id>
28

> <Delta U+W>
0.351

> <U+W>
-52.808

> <U>
7.689

> <W>
-60.498

> <W(PB)>
-62.768

> <W(SA)>
2.270

> <Valence>
8.197

> <Coulomb>
-1.561

> <VdW>
1.053

> <VdW6>
-7.737

> <VdW12>
8.791

> <Bond>
0.181

> <Angle>
2.780

> <Pdih>
5.235

> <Idih>
0.001

> <Tether>
0.000

$$$$
VeraChem MOL file


 22 21  0  0  0  0  0  0  0  0999 V2000     
   20.6749   21.4519   19.6533 C   0  0  0  0  0  0  0  0  0  0  0  0
   20.1044   22.5206   19.7481 O   0  5  0  0  0  0  0  0  0  0  0  0
   21.8492   21.3394   19.3619 O   0  0  0  0  0  0  0  0  0  0  0  0
   19.8782   20.1830   19.9348 C   0  0  0  0  0  0  0  0  0  0  0  0
   20.2801   19.3811   19.3038 H   0  0  0  0  0  0  0  0  0  0  0  0
   18.8418   20.3548   19.6201 H   0  0  0  0  0  0  0  0  0  0  0  0
   19.9226   19.7629   21.4247 C   0  0  0  0  0  0  0  0  0  0  0  0
   20.9697   19.6167   21.7208 H   0  0  0  0  0  0  0  0  0  0  0  0
   19.5254   20.5792   22.0437 H   0  0  0  0  0  0  0  0  0  0  0  0
   19.1111   18.4717   21.6807 C   0  0  0  0  0  0  0  0  0  0  0  0
   19.5410   17.6427   21.1020 H   0  0  0  0  0  0  0  0  0  0  0  0
   18.0877   18.6136   21.3075 H   0  0  0  0  0  0  0  0  0  0  0  0
   19.0370   18.0764   23.1747 C   0  0  0  0  0  0  0  0  0  0  0  0
   18.6035   18.9036   23.7532 H   0  0  0  0  0  0  0  0  0  0  0  0
   18.3444   17.2298   23.2766 H   0  0  0  0  0  0  0  0  0  0  0  0
   20.4044   17.6805   23.7763 C   0  0  0  0  0  0  0  0  0  0  0  0
   21.0895   18.5381   23.7559 H   0  0  0  0  0  0  0  0  0  0  0  0
   20.8623   16.8893   23.1669 H   0  0  0  0  0  0  0  0  0  0  0  0
   20.2609   17.1883   25.2305 C   0  0  0  0  0  0  0  0  0  0  0  0
   19.6111   16.3050   25.2845 H   0  0  0  0  0  0  0  0  0  0  0  0
   19.8299   17.9708   25.8689 H   0  0  0  0  0  0  0  0  0  0  0  0
   21.2400   16.9143   25.6444 H   0  0  0  0  0  0  0  0  0  0  0  0
  1  2  1  0  0  0  0
  1  3  2  0  0  0  0
  1  4  1  0  0  0  0
  4  5  1  0  0  0  0
  4  6  1  0  0  0  0
  4  7  1  0  0  0  0
  7  8  1  0  0  0  0
  7  9  1  0  0  0  0
  7 10  1  0  0  0  0
 10 11  1  0  0  0  0
 10 12  1  0  0  0  0
 10 13  1  0  0  0  0
 13 14  1  0  0  0  0
 13 15  1  0  0  0  0
 13 16  1  0  0  0  0
 16 17  1  0  0  0  0
 16 18  1  0  0  0  0
 16 19  1  0  0  0  0
 19 20  1  0  0  0  0
 19 21  1  0  0  0  0
 19 22  1  0  0  0  0
M  END
> <VConfSearch Rank>
667

> <Conf_Id>
50

> <Delta U+W>
-0.486

> <U+W>
-53.646

> <U>
7.026

> <W>
-60.672

> <W(PB)>
-62.964

> <W(SA)>
2.292

> <Valence>
7.637

> <Coulomb>
-1.488

> <VdW>
0.877

> <VdW6>
-7.165

> <VdW12>
8.043

> <Bond>
0.134

> <Angle>
2.513

> <Pdih>
4.990

> <Idih>
0.001

> <Tether>
0.000

$$$$
VeraChem MOL file


 22 21  0  0  0  0  0  0  0  0999 V2000     
   17.8360   21.3633   20.0621 C   0  0  0  0  0  0  0  0  0  0  0  0
   17.3923   22.3670   20.5837 O   0  5  0  0  0  0  0  0  0  0  0  0
   17.2179   20.6923   19.2596 O   0  0  0  0  0  0  0  0  0  0  0  0
   19.2384   20.9094   20.4516 C   0  0  0  0  0  0  0  0  0  0  0  0
   19.8365   21.8020   20.6709 H   0  0  0  0  0  0  0  0  0  0  0  0
   19.6924   20.4205   19.5812 H   0  0  0  0  0  0  0  0  0  0  0  0
   19.2442   19.9492   21.6666 C   0  0  0  0  0  0  0  0  0  0  0  0
   18.7785   20.4498   22.5267 H   0  0  0  0  0  0  0  0  0  0  0  0
   18.6237   19.0747   21.4303 H   0  0  0  0  0  0  0  0  0  0  0  0
   20.6773   19.5015   22.0366 C   0  0  0  0  0  0  0  0  0  0  0  0
   21.3001   20.3928   22.1938 H   0  0  0  0  0  0  0  0  0  0  0  0
   21.1239   18.9547   21.1948 H   0  0  0  0  0  0  0  0  0  0  0  0
   20.7403   18.6289   23.3126 C   0  0  0  0  0  0  0  0  0  0  0  0
   21.7956   18.4642   23.5697 H   0  0  0  0  0  0  0  0  0  0  0  0
   20.2973   19.1769   24.1554 H   0  0  0  0  0  0  0  0  0  0  0  0
   20.0424   17.2588   23.1576 C   0  0  0  0  0  0  0  0  0  0  0  0
   20.4488   16.7327   22.2827 H   0  0  0  0  0  0  0  0  0  0  0  0
   18.9686   17.3991   22.9773 H   0  0  0  0  0  0  0  0  0  0  0  0
   20.2295   16.3839   24.4135 C   0  0  0  0  0  0  0  0  0  0  0  0
   19.8069   16.8747   25.3001 H   0  0  0  0  0  0  0  0  0  0  0  0
   21.2934   16.1901   24.6030 H   0  0  0  0  0  0  0  0  0  0  0  0
   19.7259   15.4164   24.2893 H   0  0  0  0  0  0  0  0  0  0  0  0
  1  2  1  0  0  0  0
  1  3  2  0  0  0  0
  1  4  1  0  0  0  0
  4  5  1  0  0  0  0
  4  6  1  0  0  0  0
  4  7  1  0  0  0  0
  7  8  1  0  0  0  0
  7  9  1  0  0  0  0
  7 10  1  0  0  0  0
 10 11  1  0  0  0  0
 10 12  1  0  0  0  0
 10 13  1  0  0  0  0
 13 14  1  0  0  0  0
 13 15  1  0  0  0  0
 13 16  1  0  0  0  0
 16 17  1  0  0  0  0
 16 18  1  0  0  0  0
 16 19  1  0  0  0  0
 19 20  1  0  0  0  0
 19 21  1  0  0  0  0
 19 22  1  0  0  0  0
M  END
> <VConfSearch Rank>
668

> <Conf_Id>
51

> <Delta U+W>
-0.517

> <U+W>
-53.677

> <U>
7.026

> <W>
-60.703

> <W(PB)>
-63.007

> <W(SA)>
2.304

> <Valence>
7.638

> <Coulomb>
-1.488

> <VdW>
0.877

> <VdW6>
-7.165

> <VdW12>
8.042

> <Bond>
0.134

> <Angle>
2.513

> <Pdih>
4.990

> <Idih>
0.001

> <Tether>
0.000

$$$$
VeraChem MOL file


 22 21  0  0  0  0  0  0  0  0999 V2000     
   23.3452   18.4944   21.6211 C   0  0  0  0  0  0  0  0  0  0  0  0
   23.6214   17.3899   21.1960 O   0  5  0  0  0  0  0  0  0  0  0  0
   23.5048   19.5184   20.9865 O   0  0  0  0  0  0  0  0  0  0  0  0
   22.7849   18.6005   23.0367 C   0  0  0  0  0  0  0  0  0  0  0  0
   22.9137   19.6315   23.3880 H   0  0  0  0  0  0  0  0  0  0  0  0
   23.4030   17.9657   23.6825 H   0  0  0  0  0  0  0  0  0  0  0  0
   21.2990   18.1742   23.1606 C   0  0  0  0  0  0  0  0  0  0  0  0
   21.1811   17.1504   22.7791 H   0  0  0  0  0  0  0  0  0  0  0  0
   21.0228   18.1493   24.2235 H   0  0  0  0  0  0  0  0  0  0  0  0
   20.3429   19.1265   22.4081 C   0  0  0  0  0  0  0  0  0  0  0  0
   20.6021   19.1436   21.3404 H   0  0  0  0  0  0  0  0  0  0  0  0
   20.4740   20.1505   22.7839 H   0  0  0  0  0  0  0  0  0  0  0  0
   18.8676   18.7016   22.5708 C   0  0  0  0  0  0  0  0  0  0  0  0
   18.7373   17.6776   22.1948 H   0  0  0  0  0  0  0  0  0  0  0  0
   18.6050   18.6865   23.6376 H   0  0  0  0  0  0  0  0  0  0  0  0
   17.9122   19.6518   21.8189 C   0  0  0  0  0  0  0  0  0  0  0  0
   18.1707   19.6681   20.7510 H   0  0  0  0  0  0  0  0  0  0  0  0
   18.0385   20.6770   22.1936 H   0  0  0  0  0  0  0  0  0  0  0  0
   16.4400   19.2240   21.9832 C   0  0  0  0  0  0  0  0  0  0  0  0
   16.2783   18.2128   21.5872 H   0  0  0  0  0  0  0  0  0  0  0  0
   15.7751   19.9100   21.4425 H   0  0  0  0  0  0  0  0  0  0  0  0
   16.1451   19.2293   23.0407 H   0  0  0  0  0  0  0  0  0  0  0  0
  1  2  1  0  0  0  0
  1  3  2  0  0  0  0
  1  4  1  0  0  0  0
  4  5  1  0  0  0  0
  4  6  1  0  0  0  0
  4  7  1  0  0  0  0
  7  8  1  0  0  0  0
  7  9  1  0  0  0  0
  7 10  1  0  0  0  0
 10 11  1  0  0  0  0
 10 12  1  0  0  0  0
 10 13  1  0  0  0  0
 13 14  1  0  0  0  0
 13 15  1  0  0  0  0
 13 16  1  0  0  0  0
 16 17  1  0  0  0  0
 16 18  1  0  0  0  0
 16 19  1  0  0  0  0
 19 20  1  0  0  0  0
 19 21  1  0  0  0  0
 19 22  1  0  0  0  0
M  END
> <VConfSearch Rank>
669

> <Conf_Id>
43

> <Delta U+W>
-0.129

> <U+W>
-53.289

> <U>
7.937

> <W>
-61.225

> <W(PB)>
-63.523

> <W(SA)>
2.297

> <Valence>
7.358

> <Coulomb>
-0.022

> <VdW>
0.601

> <VdW6>
-7.363

> <VdW12>
7.964

> <Bond>
0.121

> <Angle>
2.425

> <Pdih>
4.811

> <Idih>
0.000

> <Tether>
0.000

$$$$
VeraChem MOL file


 22 21  0  0  0  0  0  0  0  0999 V2000     
   21.8119   18.9371   25.0949 C   0  0  0  0  0  0  0  0  0  0  0  0
   21.4995   18.0776   25.8952 O   0  5  0  0  0  0  0  0  0  0  0  0
   21.8397   20.1231   25.3584 O   0  0  0  0  0  0  0  0  0  0  0  0
   22.2085   18.4992   23.6877 C   0  0  0  0  0  0  0  0  0  0  0  0
   22.8943   17.6498   23.7897 H   0  0  0  0  0  0  0  0  0  0  0  0
   22.7758   19.3103   23.2154 H   0  0  0  0  0  0  0  0  0  0  0  0
   21.0095   18.0922   22.7923 C   0  0  0  0  0  0  0  0  0  0  0  0
   21.3929   17.6639   21.8563 H   0  0  0  0  0  0  0  0  0  0  0  0
   20.4353   17.2992   23.2913 H   0  0  0  0  0  0  0  0  0  0  0  0
   20.0813   19.2833   22.4647 C   0  0  0  0  0  0  0  0  0  0  0  0
   20.6626   20.0785   21.9780 H   0  0  0  0  0  0  0  0  0  0  0  0
   19.6799   19.7068   23.3958 H   0  0  0  0  0  0  0  0  0  0  0  0
   18.9131   18.8623   21.5474 C   0  0  0  0  0  0  0  0  0  0  0  0
   19.3119   18.4411   20.6143 H   0  0  0  0  0  0  0  0  0  0  0  0
   18.3323   18.0672   22.0348 H   0  0  0  0  0  0  0  0  0  0  0  0
   17.9852   20.0512   21.2204 C   0  0  0  0  0  0  0  0  0  0  0  0
   18.5625   20.8480   20.7312 H   0  0  0  0  0  0  0  0  0  0  0  0
   17.5829   20.4740   22.1515 H   0  0  0  0  0  0  0  0  0  0  0  0
   16.8195   19.6268   20.3047 C   0  0  0  0  0  0  0  0  0  0  0  0
   17.1932   19.2288   19.3522 H   0  0  0  0  0  0  0  0  0  0  0  0
   16.1704   20.4838   20.0827 H   0  0  0  0  0  0  0  0  0  0  0  0
   16.2062   18.8520   20.7832 H   0  0  0  0  0  0  0  0  0  0  0  0
  1  2  1  0  0  0  0
  1  3  2  0  0  0  0
  1  4  1  0  0  0  0
  4  5  1  0  0  0  0
  4  6  1  0  0  0  0
  4  7  1  0  0  0  0
  7  8  1  0  0  0  0
  7  9  1  0  0  0  0
  7 10  1  0  0  0  0
 10 11  1  0  0  0  0
 10 12  1  0  0  0  0
 10 13  1  0  0  0  0
 13 14  1  0  0  0  0
 13 15  1  0  0  0  0
 13 16  1  0  0  0  0
 16 17  1  0  0  0  0
 16 18  1  0  0  0  0
 16 19  1  0  0  0  0
 19 20  1  0  0  0  0
 19 21  1  0  0  0  0
 19 22  1  0  0  0  0
M  END
> <VConfSearch Rank>
670

> <Conf_Id>
44

> <Delta U+W>
-0.155

> <U+W>
-53.314

> <U>
7.937

> <W>
-61.252

> <W(PB)>
-63.556

> <W(SA)>
2.304

> <Valence>
7.358

> <Coulomb>
-0.021

> <VdW>
0.600

> <VdW6>
-7.363

> <VdW12>
7.964

> <Bond>
0.121

> <Angle>
2.425

> <Pdih>
4.811

> <Idih>
0.001

> <Tether>
0.000

$$$$
VeraChem MOL file


 22 21  0  0  0  0  0  0  0  0999 V2000     
   18.9057   15.7203   21.3633 C   0  0  0  0  0  0  0  0  0  0  0  0
   19.8552   14.9706   21.4780 O   0  5  0  0  0  0  0  0  0  0  0  0
   18.2222   15.7908   20.3609 O   0  0  0  0  0  0  0  0  0  0  0  0
   18.5418   16.6069   22.5510 C   0  0  0  0  0  0  0  0  0  0  0  0
   18.5638   15.9770   23.4481 H   0  0  0  0  0  0  0  0  0  0  0  0
   17.5070   16.9493   22.4290 H   0  0  0  0  0  0  0  0  0  0  0  0
   19.4875   17.8204   22.7478 C   0  0  0  0  0  0  0  0  0  0  0  0
   19.2420   18.3007   23.7035 H   0  0  0  0  0  0  0  0  0  0  0  0
   20.5240   17.4646   22.8281 H   0  0  0  0  0  0  0  0  0  0  0  0
   19.3745   18.8534   21.6009 C   0  0  0  0  0  0  0  0  0  0  0  0
   18.3473   19.2394   21.5494 H   0  0  0  0  0  0  0  0  0  0  0  0
   19.5638   18.3502   20.6428 H   0  0  0  0  0  0  0  0  0  0  0  0
   20.3660   20.0337   21.7340 C   0  0  0  0  0  0  0  0  0  0  0  0
   21.3931   19.6472   21.7857 H   0  0  0  0  0  0  0  0  0  0  0  0
   20.3084   20.6404   20.8200 H   0  0  0  0  0  0  0  0  0  0  0  0
   20.0877   20.9397   22.9547 C   0  0  0  0  0  0  0  0  0  0  0  0
   20.2190   20.3724   23.8854 H   0  0  0  0  0  0  0  0  0  0  0  0
   19.0440   21.2822   22.9319 H   0  0  0  0  0  0  0  0  0  0  0  0
   21.0272   22.1623   22.9769 C   0  0  0  0  0  0  0  0  0  0  0  0
   22.0781   21.8487   23.0272 H   0  0  0  0  0  0  0  0  0  0  0  0
   20.8197   22.7937   23.8506 H   0  0  0  0  0  0  0  0  0  0  0  0
   20.8951   22.7763   22.0764 H   0  0  0  0  0  0  0  0  0  0  0  0
  1  2  1  0  0  0  0
  1  3  2  0  0  0  0
  1  4  1  0  0  0  0
  4  5  1  0  0  0  0
  4  6  1  0  0  0  0
  4  7  1  0  0  0  0
  7  8  1  0  0  0  0
  7  9  1  0  0  0  0
  7 10  1  0  0  0  0
 10 11  1  0  0  0  0
 10 12  1  0  0  0  0
 10 13  1  0  0  0  0
 13 14  1  0  0  0  0
 13 15  1  0  0  0  0
 13 16  1  0  0  0  0
 16 17  1  0  0  0  0
 16 18  1  0  0  0  0
 16 19  1  0  0  0  0
 19 20  1  0  0  0  0
 19 21  1  0  0  0  0
 19 22  1  0  0  0  0
M  END
> <VConfSearch Rank>
671

> <Conf_Id>
53

> <Delta U+W>
0.723

> <U+W>
-52.436

> <U>
8.587

> <W>
-61.022

> <W(PB)>
-63.285

> <W(SA)>
2.263

> <Valence>
7.933

> <Coulomb>
-0.124

> <VdW>
0.778

> <VdW6>
-7.981

> <VdW12>
8.759

> <Bond>
0.160

> <Angle>
2.698

> <Pdih>
5.074

> <Idih>
0.001

> <Tether>
0.000

$$$$
VeraChem MOL file


 22 21  0  0  0  0  0  0  0  0999 V2000     
   18.3343   21.0045   20.0928 C   0  0  0  0  0  0  0  0  0  0  0  0
   17.6553   20.3372   19.3375 O   0  5  0  0  0  0  0  0  0  0  0  0
   18.3937   22.2174   20.0499 O   0  0  0  0  0  0  0  0  0  0  0  0
   19.1386   20.2820   21.1675 C   0  0  0  0  0  0  0  0  0  0  0  0
   20.0428   20.8686   21.3690 H   0  0  0  0  0  0  0  0  0  0  0  0
   19.4551   19.3184   20.7525 H   0  0  0  0  0  0  0  0  0  0  0  0
   18.3359   20.0674   22.4754 C   0  0  0  0  0  0  0  0  0  0  0  0
   17.9161   21.0320   22.7929 H   0  0  0  0  0  0  0  0  0  0  0  0
   17.4784   19.4120   22.2696 H   0  0  0  0  0  0  0  0  0  0  0  0
   19.1663   19.4839   23.6462 C   0  0  0  0  0  0  0  0  0  0  0  0
   18.5059   19.4242   24.5221 H   0  0  0  0  0  0  0  0  0  0  0  0
   19.9683   20.1813   23.9244 H   0  0  0  0  0  0  0  0  0  0  0  0
   19.7487   18.0719   23.3839 C   0  0  0  0  0  0  0  0  0  0  0  0
   19.7146   17.5017   24.3223 H   0  0  0  0  0  0  0  0  0  0  0  0
   19.1128   17.5275   22.6725 H   0  0  0  0  0  0  0  0  0  0  0  0
   21.2134   18.0951   22.8891 C   0  0  0  0  0  0  0  0  0  0  0  0
   21.8462   18.5919   23.6374 H   0  0  0  0  0  0  0  0  0  0  0  0
   21.3003   18.6811   21.9663 H   0  0  0  0  0  0  0  0  0  0  0  0
   21.7473   16.6709   22.6364 C   0  0  0  0  0  0  0  0  0  0  0  0
   21.7118   16.0691   23.5540 H   0  0  0  0  0  0  0  0  0  0  0  0
   22.7893   16.7037   22.2927 H   0  0  0  0  0  0  0  0  0  0  0  0
   21.1528   16.1599   21.8677 H   0  0  0  0  0  0  0  0  0  0  0  0
  1  2  1  0  0  0  0
  1  3  2  0  0  0  0
  1  4  1  0  0  0  0
  4  5  1  0  0  0  0
  4  6  1  0  0  0  0
  4  7  1  0  0  0  0
  7  8  1  0  0  0  0
  7  9  1  0  0  0  0
  7 10  1  0  0  0  0
 10 11  1  0  0  0  0
 10 12  1  0  0  0  0
 10 13  1  0  0  0  0
 13 14  1  0  0  0  0
 13 15  1  0  0  0  0
 13 16  1  0  0  0  0
 16 17  1  0  0  0  0
 16 18  1  0  0  0  0
 16 19  1  0  0  0  0
 19 20  1  0  0  0  0
 19 21  1  0  0  0  0
 19 22  1  0  0  0  0
M  END
> <VConfSearch Rank>
672

> <Conf_Id>
5

> <Delta U+W>
2.167

> <U+W>
-50.993

> <U>
10.045

> <W>
-61.037

> <W(PB)>
-63.303

> <W(SA)>
2.266

> <Valence>
10.100

> <Coulomb>
-0.883

> <VdW>
0.828

> <VdW6>
-8.177

> <VdW12>
9.005

> <Bond>
0.182

> <Angle>
2.988

> <Pdih>
6.930

> <Idih>
0.001

> <Tether>
0.000

$$$$
VeraChem MOL file


 22 21  0  0  0  0  0  0  0  0999 V2000     
   19.1168   20.3075   25.2894 C   0  0  0  0  0  0  0  0  0  0  0  0
   18.0842   20.9376   25.1731 O   0  5  0  0  0  0  0  0  0  0  0  0
   19.7795   20.2845   26.3076 O   0  0  0  0  0  0  0  0  0  0  0  0
   19.6206   19.5211   24.0846 C   0  0  0  0  0  0  0  0  0  0  0  0
   18.7442   19.1599   23.5348 H   0  0  0  0  0  0  0  0  0  0  0  0
   20.1647   18.6435   24.4534 H   0  0  0  0  0  0  0  0  0  0  0  0
   20.5296   20.3641   23.1549 C   0  0  0  0  0  0  0  0  0  0  0  0
   19.9447   21.1927   22.7324 H   0  0  0  0  0  0  0  0  0  0  0  0
   21.3218   20.8250   23.7610 H   0  0  0  0  0  0  0  0  0  0  0  0
   21.1930   19.5594   22.0090 C   0  0  0  0  0  0  0  0  0  0  0  0
   21.8585   18.7902   22.4242 H   0  0  0  0  0  0  0  0  0  0  0  0
   21.8439   20.2492   21.4546 H   0  0  0  0  0  0  0  0  0  0  0  0
   20.1973   18.9242   21.0056 C   0  0  0  0  0  0  0  0  0  0  0  0
   19.2729   19.5164   20.9649 H   0  0  0  0  0  0  0  0  0  0  0  0
   20.6369   18.9748   20.0000 H   0  0  0  0  0  0  0  0  0  0  0  0
   19.8757   17.4438   21.3150 C   0  0  0  0  0  0  0  0  0  0  0  0
   19.4604   17.3415   22.3247 H   0  0  0  0  0  0  0  0  0  0  0  0
   20.8028   16.8545   21.2954 H   0  0  0  0  0  0  0  0  0  0  0  0
   18.8786   16.8570   20.2958 C   0  0  0  0  0  0  0  0  0  0  0  0
   17.9284   17.4067   20.3157 H   0  0  0  0  0  0  0  0  0  0  0  0
   18.6660   15.8046   20.5245 H   0  0  0  0  0  0  0  0  0  0  0  0
   19.2829   16.9074   19.2764 H   0  0  0  0  0  0  0  0  0  0  0  0
  1  2  1  0  0  0  0
  1  3  2  0  0  0  0
  1  4  1  0  0  0  0
  4  5  1  0  0  0  0
  4  6  1  0  0  0  0
  4  7  1  0  0  0  0
  7  8  1  0  0  0  0
  7  9  1  0  0  0  0
  7 10  1  0  0  0  0
 10 11  1  0  0  0  0
 10 12  1  0  0  0  0
 10 13  1  0  0  0  0
 13 14  1  0  0  0  0
 13 15  1  0  0  0  0
 13 16  1  0  0  0  0
 16 17  1  0  0  0  0
 16 18  1  0  0  0  0
 16 19  1  0  0  0  0
 19 20  1  0  0  0  0
 19 21  1  0  0  0  0
 19 22  1  0  0  0  0
M  END
> <VConfSearch Rank>
673

> <Conf_Id>
6

> <Delta U+W>
2.118

> <U+W>
-51.042

> <U>
10.045

> <W>
-61.086

> <W(PB)>
-63.356

> <W(SA)>
2.270

> <Valence>
10.100

> <Coulomb>
-0.883

> <VdW>
0.828

> <VdW6>
-8.177

> <VdW12>
9.004

> <Bond>
0.182

> <Angle>
2.988

> <Pdih>
6.930

> <Idih>
0.001

> <Tether>
0.000

$$$$
VeraChem MOL file


 22 21  0  0  0  0  0  0  0  0999 V2000     
   19.7928   16.3439   23.2257 C   0  0  0  0  0  0  0  0  0  0  0  0
   18.8654   16.1107   23.9760 O   0  5  0  0  0  0  0  0  0  0  0  0
   20.9551   16.3559   23.5803 O   0  0  0  0  0  0  0  0  0  0  0  0
   19.4896   16.5640   21.7448 C   0  0  0  0  0  0  0  0  0  0  0  0
   19.0563   15.6269   21.3765 H   0  0  0  0  0  0  0  0  0  0  0  0
   20.4336   16.7065   21.2049 H   0  0  0  0  0  0  0  0  0  0  0  0
   18.5100   17.7305   21.4339 C   0  0  0  0  0  0  0  0  0  0  0  0
   18.0907   17.5631   20.4326 H   0  0  0  0  0  0  0  0  0  0  0  0
   17.6580   17.6991   22.1272 H   0  0  0  0  0  0  0  0  0  0  0  0
   19.1531   19.1395   21.4461 C   0  0  0  0  0  0  0  0  0  0  0  0
   18.4131   19.8562   21.0645 H   0  0  0  0  0  0  0  0  0  0  0  0
   19.9985   19.1661   20.7450 H   0  0  0  0  0  0  0  0  0  0  0  0
   19.6218   19.6063   22.8429 C   0  0  0  0  0  0  0  0  0  0  0  0
   18.8047   19.4825   23.5668 H   0  0  0  0  0  0  0  0  0  0  0  0
   20.4535   18.9784   23.1865 H   0  0  0  0  0  0  0  0  0  0  0  0
   20.0805   21.0799   22.8277 C   0  0  0  0  0  0  0  0  0  0  0  0
   19.2542   21.7226   22.4937 H   0  0  0  0  0  0  0  0  0  0  0  0
   20.8966   21.2056   22.1028 H   0  0  0  0  0  0  0  0  0  0  0  0
   20.5562   21.5408   24.2200 C   0  0  0  0  0  0  0  0  0  0  0  0
   19.7488   21.4547   24.9590 H   0  0  0  0  0  0  0  0  0  0  0  0
   20.8795   22.5894   24.1912 H   0  0  0  0  0  0  0  0  0  0  0  0
   21.4033   20.9339   24.5660 H   0  0  0  0  0  0  0  0  0  0  0  0
  1  2  1  0  0  0  0
  1  3  2  0  0  0  0
  1  4  1  0  0  0  0
  4  5  1  0  0  0  0
  4  6  1  0  0  0  0
  4  7  1  0  0  0  0
  7  8  1  0  0  0  0
  7  9  1  0  0  0  0
  7 10  1  0  0  0  0
 10 11  1  0  0  0  0
 10 12  1  0  0  0  0
 10 13  1  0  0  0  0
 13 14  1  0  0  0  0
 13 15  1  0  0  0  0
 13 16  1  0  0  0  0
 16 17  1  0  0  0  0
 16 18  1  0  0  0  0
 16 19  1  0  0  0  0
 19 20  1  0  0  0  0
 19 21  1  0  0  0  0
 19 22  1  0  0  0  0
M  END
> <VConfSearch Rank>
674

> <Conf_Id>
8

> <Delta U+W>
1.886

> <U+W>
-51.274

> <U>
11.237

> <W>
-62.510

> <W(PB)>
-64.777

> <W(SA)>
2.267

> <Valence>
9.029

> <Coulomb>
1.667

> <VdW>
0.540

> <VdW6>
-8.825

> <VdW12>
9.365

> <Bond>
0.186

> <Angle>
3.195

> <Pdih>
5.642

> <Idih>
0.007

> <Tether>
0.000

$$$$
VeraChem MOL file


 22 21  0  0  0  0  0  0  0  0999 V2000     
   21.7646   20.3892   20.6859 C   0  0  0  0  0  0  0  0  0  0  0  0
   21.2921   21.4581   21.0192 O   0  5  0  0  0  0  0  0  0  0  0  0
   22.0322   20.1022   19.5355 O   0  0  0  0  0  0  0  0  0  0  0  0
   22.0672   19.3612   21.7725 C   0  0  0  0  0  0  0  0  0  0  0  0
   22.0384   19.8612   22.7472 H   0  0  0  0  0  0  0  0  0  0  0  0
   23.1015   19.0286   21.6266 H   0  0  0  0  0  0  0  0  0  0  0  0
   21.1249   18.1263   21.7594 C   0  0  0  0  0  0  0  0  0  0  0  0
   21.2409   17.6071   20.7980 H   0  0  0  0  0  0  0  0  0  0  0  0
   21.4496   17.4169   22.5325 H   0  0  0  0  0  0  0  0  0  0  0  0
   19.6261   18.4564   21.9677 C   0  0  0  0  0  0  0  0  0  0  0  0
   19.0549   17.5277   21.8444 H   0  0  0  0  0  0  0  0  0  0  0  0
   19.2831   19.1382   21.1776 H   0  0  0  0  0  0  0  0  0  0  0  0
   19.3176   19.0718   23.3546 C   0  0  0  0  0  0  0  0  0  0  0  0
   19.6768   18.4019   24.1475 H   0  0  0  0  0  0  0  0  0  0  0  0
   19.8710   20.0134   23.4643 H   0  0  0  0  0  0  0  0  0  0  0  0
   17.8164   19.3739   23.5722 C   0  0  0  0  0  0  0  0  0  0  0  0
   17.4508   20.0315   22.7715 H   0  0  0  0  0  0  0  0  0  0  0  0
   17.7037   19.9354   24.5099 H   0  0  0  0  0  0  0  0  0  0  0  0
   16.9386   18.1055   23.6469 C   0  0  0  0  0  0  0  0  0  0  0  0
   16.9210   17.5719   22.6886 H   0  0  0  0  0  0  0  0  0  0  0  0
   15.9033   18.3702   23.8977 H   0  0  0  0  0  0  0  0  0  0  0  0
   17.3075   17.4172   24.4184 H   0  0  0  0  0  0  0  0  0  0  0  0
  1  2  1  0  0  0  0
  1  3  2  0  0  0  0
  1  4  1  0  0  0  0
  4  5  1  0  0  0  0
  4  6  1  0  0  0  0
  4  7  1  0  0  0  0
  7  8  1  0  0  0  0
  7  9  1  0  0  0  0
  7 10  1  0  0  0  0
 10 11  1  0  0  0  0
 10 12  1  0  0  0  0
 10 13  1  0  0  0  0
 13 14  1  0  0  0  0
 13 15  1  0  0  0  0
 13 16  1  0  0  0  0
 16 17  1  0  0  0  0
 16 18  1  0  0  0  0
 16 19  1  0  0  0  0
 19 20  1  0  0  0  0
 19 21  1  0  0  0  0
 19 22  1  0  0  0  0
M  END
> <VConfSearch Rank>
675

> <Conf_Id>
93

> <Delta U+W>
1.836

> <U+W>
-51.323

> <U>
10.427

> <W>
-61.751

> <W(PB)>
-63.980

> <W(SA)>
2.230

> <Valence>
8.446

> <Coulomb>
1.306

> <VdW>
0.676

> <VdW6>
-8.928

> <VdW12>
9.604

> <Bond>
0.209

> <Angle>
3.066

> <Pdih>
5.170

> <Idih>
0.001

> <Tether>
0.000

$$$$
VeraChem MOL file


 22 21  0  0  0  0  0  0  0  0999 V2000     
   22.7925   19.0810   22.2063 C   0  0  0  0  0  0  0  0  0  0  0  0
   23.5223   20.0398   22.3656 O   0  5  0  0  0  0  0  0  0  0  0  0
   22.6936   18.4791   21.1553 O   0  0  0  0  0  0  0  0  0  0  0  0
   21.9796   18.5898   23.4010 C   0  0  0  0  0  0  0  0  0  0  0  0
   22.6717   18.4862   24.2448 H   0  0  0  0  0  0  0  0  0  0  0  0
   21.6067   17.5830   23.1823 H   0  0  0  0  0  0  0  0  0  0  0  0
   20.8136   19.5324   23.8073 C   0  0  0  0  0  0  0  0  0  0  0  0
   20.3226   19.1323   24.7046 H   0  0  0  0  0  0  0  0  0  0  0  0
   21.2339   20.5059   24.0954 H   0  0  0  0  0  0  0  0  0  0  0  0
   19.7515   19.7576   22.7028 C   0  0  0  0  0  0  0  0  0  0  0  0
   20.2279   20.1913   21.8129 H   0  0  0  0  0  0  0  0  0  0  0  0
   19.0376   20.5068   23.0676 H   0  0  0  0  0  0  0  0  0  0  0  0
   18.9902   18.4685   22.3078 C   0  0  0  0  0  0  0  0  0  0  0  0
   19.7042   17.7306   21.9197 H   0  0  0  0  0  0  0  0  0  0  0  0
   18.5288   18.0209   23.1985 H   0  0  0  0  0  0  0  0  0  0  0  0
   17.9098   18.7003   21.2257 C   0  0  0  0  0  0  0  0  0  0  0  0
   17.5226   17.7246   20.9015 H   0  0  0  0  0  0  0  0  0  0  0  0
   18.3662   19.1625   20.3394 H   0  0  0  0  0  0  0  0  0  0  0  0
   16.7266   19.5646   21.7135 C   0  0  0  0  0  0  0  0  0  0  0  0
   17.0432   20.5913   21.9348 H   0  0  0  0  0  0  0  0  0  0  0  0
   16.2769   19.1392   22.6201 H   0  0  0  0  0  0  0  0  0  0  0  0
   15.9471   19.6172   20.9425 H   0  0  0  0  0  0  0  0  0  0  0  0
  1  2  1  0  0  0  0
  1  3  2  0  0  0  0
  1  4  1  0  0  0  0
  4  5  1  0  0  0  0
  4  6  1  0  0  0  0
  4  7  1  0  0  0  0
  7  8  1  0  0  0  0
  7  9  1  0  0  0  0
  7 10  1  0  0  0  0
 10 11  1  0  0  0  0
 10 12  1  0  0  0  0
 10 13  1  0  0  0  0
 13 14  1  0  0  0  0
 13 15  1  0  0  0  0
 13 16  1  0  0  0  0
 16 17  1  0  0  0  0
 16 18  1  0  0  0  0
 16 19  1  0  0  0  0
 19 20  1  0  0  0  0
 19 21  1  0  0  0  0
 19 22  1  0  0  0  0
M  END
> <VConfSearch Rank>
676

> <Conf_Id>
70

> <Delta U+W>
1.803

> <U+W>
-51.356

> <U>
10.428

> <W>
-61.784

> <W(PB)>
-64.014

> <W(SA)>
2.230

> <Valence>
8.445

> <Coulomb>
1.306

> <VdW>
0.676

> <VdW6>
-8.929

> <VdW12>
9.605

> <Bond>
0.209

> <Angle>
3.066

> <Pdih>
5.170

> <Idih>
0.001

> <Tether>
0.000

$$$$
VeraChem MOL file


 22 21  0  0  0  0  0  0  0  0999 V2000     
   21.0514   18.1458   19.4770 C   0  0  0  0  0  0  0  0  0  0  0  0
   22.0179   18.8760   19.3781 O   0  5  0  0  0  0  0  0  0  0  0  0
   20.1681   18.0832   18.6447 O   0  0  0  0  0  0  0  0  0  0  0  0
   20.9544   17.2437   20.7041 C   0  0  0  0  0  0  0  0  0  0  0  0
   21.9409   16.7907   20.8576 H   0  0  0  0  0  0  0  0  0  0  0  0
   20.2600   16.4243   20.4822 H   0  0  0  0  0  0  0  0  0  0  0  0
   20.5171   17.9825   21.9956 C   0  0  0  0  0  0  0  0  0  0  0  0
   20.6006   17.2932   22.8466 H   0  0  0  0  0  0  0  0  0  0  0  0
   21.2148   18.8087   22.1860 H   0  0  0  0  0  0  0  0  0  0  0  0
   19.0669   18.5155   21.9104 C   0  0  0  0  0  0  0  0  0  0  0  0
   18.3986   17.6889   21.6331 H   0  0  0  0  0  0  0  0  0  0  0  0
   18.9893   19.2591   21.1051 H   0  0  0  0  0  0  0  0  0  0  0  0
   18.5593   19.1347   23.2342 C   0  0  0  0  0  0  0  0  0  0  0  0
   17.4925   19.3713   23.1210 H   0  0  0  0  0  0  0  0  0  0  0  0
   18.6286   18.3906   24.0394 H   0  0  0  0  0  0  0  0  0  0  0  0
   19.3168   20.4179   23.6437 C   0  0  0  0  0  0  0  0  0  0  0  0
   19.2925   21.1420   22.8177 H   0  0  0  0  0  0  0  0  0  0  0  0
   20.3727   20.1884   23.8377 H   0  0  0  0  0  0  0  0  0  0  0  0
   18.7031   21.0587   24.9049 C   0  0  0  0  0  0  0  0  0  0  0  0
   17.6550   21.3374   24.7341 H   0  0  0  0  0  0  0  0  0  0  0  0
   19.2536   21.9664   25.1844 H   0  0  0  0  0  0  0  0  0  0  0  0
   18.7395   20.3648   25.7549 H   0  0  0  0  0  0  0  0  0  0  0  0
  1  2  1  0  0  0  0
  1  3  2  0  0  0  0
  1  4  1  0  0  0  0
  4  5  1  0  0  0  0
  4  6  1  0  0  0  0
  4  7  1  0  0  0  0
  7  8  1  0  0  0  0
  7  9  1  0  0  0  0
  7 10  1  0  0  0  0
 10 11  1  0  0  0  0
 10 12  1  0  0  0  0
 10 13  1  0  0  0  0
 13 14  1  0  0  0  0
 13 15  1  0  0  0  0
 13 16  1  0  0  0  0
 16 17  1  0  0  0  0
 16 18  1  0  0  0  0
 16 19  1  0  0  0  0
 19 20  1  0  0  0  0
 19 21  1  0  0  0  0
 19 22  1  0  0  0  0
M  END
> <VConfSearch Rank>
677

> <Conf_Id>
85

> <Delta U+W>
0.707

> <U+W>
-52.452

> <U>
8.925

> <W>
-61.378

> <W(PB)>
-63.661

> <W(SA)>
2.283

> <Valence>
7.881

> <Coulomb>
0.349

> <VdW>
0.695

> <VdW6>
-8.049

> <VdW12>
8.743

> <Bond>
0.156

> <Angle>
2.660

> <Pdih>
5.064

> <Idih>
0.001

> <Tether>
0.000

$$$$
VeraChem MOL file


 22 21  0  0  0  0  0  0  0  0999 V2000     
   22.1277   16.5245   21.7007 C   0  0  0  0  0  0  0  0  0  0  0  0
   21.6470   15.5714   21.1197 O   0  5  0  0  0  0  0  0  0  0  0  0
   23.1557   17.0733   21.3556 O   0  0  0  0  0  0  0  0  0  0  0  0
   21.4158   17.0476   22.9453 C   0  0  0  0  0  0  0  0  0  0  0  0
   22.1779   17.1960   23.7193 H   0  0  0  0  0  0  0  0  0  0  0  0
   20.7362   16.2696   23.3139 H   0  0  0  0  0  0  0  0  0  0  0  0
   20.6415   18.3728   22.7215 C   0  0  0  0  0  0  0  0  0  0  0  0
   20.3026   18.7437   23.6970 H   0  0  0  0  0  0  0  0  0  0  0  0
   21.3234   19.1287   22.3081 H   0  0  0  0  0  0  0  0  0  0  0  0
   19.4207   18.1986   21.7886 C   0  0  0  0  0  0  0  0  0  0  0  0
   18.7042   17.5060   22.2508 H   0  0  0  0  0  0  0  0  0  0  0  0
   19.7464   17.7233   20.8532 H   0  0  0  0  0  0  0  0  0  0  0  0
   18.6999   19.5224   21.4301 C   0  0  0  0  0  0  0  0  0  0  0  0
   19.3831   20.1870   20.8837 H   0  0  0  0  0  0  0  0  0  0  0  0
   17.8940   19.2783   20.7245 H   0  0  0  0  0  0  0  0  0  0  0  0
   18.0750   20.2683   22.6354 C   0  0  0  0  0  0  0  0  0  0  0  0
   17.8146   19.5566   23.4310 H   0  0  0  0  0  0  0  0  0  0  0  0
   17.1291   20.7254   22.3133 H   0  0  0  0  0  0  0  0  0  0  0  0
   18.9801   21.3890   23.1938 C   0  0  0  0  0  0  0  0  0  0  0  0
   19.9407   20.9992   23.5493 H   0  0  0  0  0  0  0  0  0  0  0  0
   18.4906   21.8936   24.0367 H   0  0  0  0  0  0  0  0  0  0  0  0
   19.1856   22.1442   22.4241 H   0  0  0  0  0  0  0  0  0  0  0  0
  1  2  1  0  0  0  0
  1  3  2  0  0  0  0
  1  4  1  0  0  0  0
  4  5  1  0  0  0  0
  4  6  1  0  0  0  0
  4  7  1  0  0  0  0
  7  8  1  0  0  0  0
  7  9  1  0  0  0  0
  7 10  1  0  0  0  0
 10 11  1  0  0  0  0
 10 12  1  0  0  0  0
 10 13  1  0  0  0  0
 13 14  1  0  0  0  0
 13 15  1  0  0  0  0
 13 16  1  0  0  0  0
 16 17  1  0  0  0  0
 16 18  1  0  0  0  0
 16 19  1  0  0  0  0
 19 20  1  0  0  0  0
 19 21  1  0  0  0  0
 19 22  1  0  0  0  0
M  END
> <VConfSearch Rank>
678

> <Conf_Id>
82

> <Delta U+W>
3.438

> <U+W>
-49.721

> <U>
11.773

> <W>
-61.495

> <W(PB)>
-63.749

> <W(SA)>
2.254

> <Valence>
10.419

> <Coulomb>
0.565

> <VdW>
0.789

> <VdW6>
-8.847

> <VdW12>
9.636

> <Bond>
0.200

> <Angle>
3.187

> <Pdih>
7.032

> <Idih>
0.001

> <Tether>
0.000

$$$$
VeraChem MOL file


 22 21  0  0  0  0  0  0  0  0999 V2000     
   20.5213   22.1850   22.4524 C   0  0  0  0  0  0  0  0  0  0  0  0
   20.2833   22.6392   21.3506 O   0  5  0  0  0  0  0  0  0  0  0  0
   20.1494   22.7023   23.4873 O   0  0  0  0  0  0  0  0  0  0  0  0
   21.3523   20.9078   22.5399 C   0  0  0  0  0  0  0  0  0  0  0  0
   21.7616   20.8241   23.5539 H   0  0  0  0  0  0  0  0  0  0  0  0
   22.2058   21.0264   21.8620 H   0  0  0  0  0  0  0  0  0  0  0  0
   20.5731   19.6190   22.1689 C   0  0  0  0  0  0  0  0  0  0  0  0
   20.1294   19.7352   21.1705 H   0  0  0  0  0  0  0  0  0  0  0  0
   21.2877   18.7885   22.1092 H   0  0  0  0  0  0  0  0  0  0  0  0
   19.4716   19.2727   23.1975 C   0  0  0  0  0  0  0  0  0  0  0  0
   18.8217   20.1471   23.3383 H   0  0  0  0  0  0  0  0  0  0  0  0
   19.9339   19.0741   24.1740 H   0  0  0  0  0  0  0  0  0  0  0  0
   18.5806   18.0707   22.7951 C   0  0  0  0  0  0  0  0  0  0  0  0
   17.8084   17.9594   23.5685 H   0  0  0  0  0  0  0  0  0  0  0  0
   18.0408   18.2969   21.8654 H   0  0  0  0  0  0  0  0  0  0  0  0
   19.3305   16.7213   22.6659 C   0  0  0  0  0  0  0  0  0  0  0  0
   18.6745   15.9188   23.0306 H   0  0  0  0  0  0  0  0  0  0  0  0
   20.2148   16.7125   23.3179 H   0  0  0  0  0  0  0  0  0  0  0  0
   19.7325   16.3849   21.2125 C   0  0  0  0  0  0  0  0  0  0  0  0
   18.8463   16.3194   20.5680 H   0  0  0  0  0  0  0  0  0  0  0  0
   20.2495   15.4175   21.1714 H   0  0  0  0  0  0  0  0  0  0  0  0
   20.4031   17.1409   20.7887 H   0  0  0  0  0  0  0  0  0  0  0  0
  1  2  1  0  0  0  0
  1  3  2  0  0  0  0
  1  4  1  0  0  0  0
  4  5  1  0  0  0  0
  4  6  1  0  0  0  0
  4  7  1  0  0  0  0
  7  8  1  0  0  0  0
  7  9  1  0  0  0  0
  7 10  1  0  0  0  0
 10 11  1  0  0  0  0
 10 12  1  0  0  0  0
 10 13  1  0  0  0  0
 13 14  1  0  0  0  0
 13 15  1  0  0  0  0
 13 16  1  0  0  0  0
 16 17  1  0  0  0  0
 16 18  1  0  0  0  0
 16 19  1  0  0  0  0
 19 20  1  0  0  0  0
 19 21  1  0  0  0  0
 19 22  1  0  0  0  0
M  END
> <VConfSearch Rank>
679

> <Conf_Id>
94

> <Delta U+W>
3.471

> <U+W>
-49.688

> <U>
11.773

> <W>
-61.461

> <W(PB)>
-63.710

> <W(SA)>
2.248

> <Valence>
10.419

> <Coulomb>
0.566

> <VdW>
0.789

> <VdW6>
-8.847

> <VdW12>
9.636

> <Bond>
0.200

> <Angle>
3.187

> <Pdih>
7.032

> <Idih>
0.001

> <Tether>
0.000

$$$$
VeraChem MOL file


 22 21  0  0  0  0  0  0  0  0999 V2000     
   20.4464   20.6647   19.5129 C   0  0  0  0  0  0  0  0  0  0  0  0
   21.2896   21.4831   19.2032 O   0  5  0  0  0  0  0  0  0  0  0  0
   19.3481   20.6022   18.9967 O   0  0  0  0  0  0  0  0  0  0  0  0
   20.7782   19.6745   20.6235 C   0  0  0  0  0  0  0  0  0  0  0  0
   21.8528   19.4609   20.5803 H   0  0  0  0  0  0  0  0  0  0  0  0
   20.2509   18.7389   20.4049 H   0  0  0  0  0  0  0  0  0  0  0  0
   20.3933   20.1998   22.0307 C   0  0  0  0  0  0  0  0  0  0  0  0
   20.8720   21.1765   22.1859 H   0  0  0  0  0  0  0  0  0  0  0  0
   19.3112   20.3821   22.0718 H   0  0  0  0  0  0  0  0  0  0  0  0
   20.8180   19.2532   23.1814 C   0  0  0  0  0  0  0  0  0  0  0  0
   20.5578   19.7208   24.1401 H   0  0  0  0  0  0  0  0  0  0  0  0
   21.9128   19.1647   23.1816 H   0  0  0  0  0  0  0  0  0  0  0  0
   20.2065   17.8284   23.1241 C   0  0  0  0  0  0  0  0  0  0  0  0
   20.5980   17.2999   22.2451 H   0  0  0  0  0  0  0  0  0  0  0  0
   20.5621   17.2600   23.9942 H   0  0  0  0  0  0  0  0  0  0  0  0
   18.6592   17.7761   23.0932 C   0  0  0  0  0  0  0  0  0  0  0  0
   18.3455   16.7254   23.0266 H   0  0  0  0  0  0  0  0  0  0  0  0
   18.2824   18.2638   22.1842 H   0  0  0  0  0  0  0  0  0  0  0  0
   18.0025   18.4129   24.3370 C   0  0  0  0  0  0  0  0  0  0  0  0
   18.3777   17.9507   25.2592 H   0  0  0  0  0  0  0  0  0  0  0  0
   16.9136   18.2771   24.3086 H   0  0  0  0  0  0  0  0  0  0  0  0
   18.2025   19.4906   24.3854 H   0  0  0  0  0  0  0  0  0  0  0  0
  1  2  1  0  0  0  0
  1  3  2  0  0  0  0
  1  4  1  0  0  0  0
  4  5  1  0  0  0  0
  4  6  1  0  0  0  0
  4  7  1  0  0  0  0
  7  8  1  0  0  0  0
  7  9  1  0  0  0  0
  7 10  1  0  0  0  0
 10 11  1  0  0  0  0
 10 12  1  0  0  0  0
 10 13  1  0  0  0  0
 13 14  1  0  0  0  0
 13 15  1  0  0  0  0
 13 16  1  0  0  0  0
 16 17  1  0  0  0  0
 16 18  1  0  0  0  0
 16 19  1  0  0  0  0
 19 20  1  0  0  0  0
 19 21  1  0  0  0  0
 19 22  1  0  0  0  0
M  END
> <VConfSearch Rank>
680

> <Conf_Id>
56

> <Delta U+W>
0.853

> <U+W>
-52.307

> <U>
8.874

> <W>
-61.181

> <W(PB)>
-63.413

> <W(SA)>
2.232

> <Valence>
8.479

> <Coulomb>
-0.357

> <VdW>
0.753

> <VdW6>
-9.081

> <VdW12>
9.833

> <Bond>
0.221

> <Angle>
3.208

> <Pdih>
5.050

> <Idih>
0.000

> <Tether>
0.000

$$$$
VeraChem MOL file


 22 21  0  0  0  0  0  0  0  0999 V2000     
   16.6045   16.7116   23.1828 C   0  0  0  0  0  0  0  0  0  0  0  0
   17.2486   16.0164   23.9446 O   0  5  0  0  0  0  0  0  0  0  0  0
   15.4145   16.5594   22.9912 O   0  0  0  0  0  0  0  0  0  0  0  0
   17.2966   17.8387   22.4147 C   0  0  0  0  0  0  0  0  0  0  0  0
   16.7769   18.7714   22.6638 H   0  0  0  0  0  0  0  0  0  0  0  0
   17.1324   17.6553   21.3464 H   0  0  0  0  0  0  0  0  0  0  0  0
   18.8155   17.9946   22.6926 C   0  0  0  0  0  0  0  0  0  0  0  0
   18.9734   18.1719   23.7655 H   0  0  0  0  0  0  0  0  0  0  0  0
   19.3293   17.0549   22.4467 H   0  0  0  0  0  0  0  0  0  0  0  0
   19.4324   19.1525   21.8784 C   0  0  0  0  0  0  0  0  0  0  0  0
   18.9172   20.0908   22.1259 H   0  0  0  0  0  0  0  0  0  0  0  0
   19.2732   18.9731   20.8062 H   0  0  0  0  0  0  0  0  0  0  0  0
   20.9433   19.3057   22.1562 C   0  0  0  0  0  0  0  0  0  0  0  0
   21.1030   19.4851   23.2284 H   0  0  0  0  0  0  0  0  0  0  0  0
   21.4590   18.3676   21.9088 H   0  0  0  0  0  0  0  0  0  0  0  0
   21.5604   20.4627   21.3429 C   0  0  0  0  0  0  0  0  0  0  0  0
   21.0484   21.4032   21.5893 H   0  0  0  0  0  0  0  0  0  0  0  0
   21.4043   20.2858   20.2697 H   0  0  0  0  0  0  0  0  0  0  0  0
   23.0692   20.6123   21.6232 C   0  0  0  0  0  0  0  0  0  0  0  0
   23.2526   20.8215   22.6852 H   0  0  0  0  0  0  0  0  0  0  0  0
   23.4915   21.4390   21.0371 H   0  0  0  0  0  0  0  0  0  0  0  0
   23.6112   19.6957   21.3557 H   0  0  0  0  0  0  0  0  0  0  0  0
  1  2  1  0  0  0  0
  1  3  2  0  0  0  0
  1  4  1  0  0  0  0
  4  5  1  0  0  0  0
  4  6  1  0  0  0  0
  4  7  1  0  0  0  0
  7  8  1  0  0  0  0
  7  9  1  0  0  0  0
  7 10  1  0  0  0  0
 10 11  1  0  0  0  0
 10 12  1  0  0  0  0
 10 13  1  0  0  0  0
 13 14  1  0  0  0  0
 13 15  1  0  0  0  0
 13 16  1  0  0  0  0
 16 17  1  0  0  0  0
 16 18  1  0  0  0  0
 16 19  1  0  0  0  0
 19 20  1  0  0  0  0
 19 21  1  0  0  0  0
 19 22  1  0  0  0  0
M  END
> <VConfSearch Rank>
681

> <Conf_Id>
0

> <Delta U+W>
0.000

> <U+W>
-53.159

> <U>
6.763

> <W>
-59.922

> <W(PB)>
-62.256

> <W(SA)>
2.334

> <Valence>
7.600

> <Coulomb>
-2.139

> <VdW>
1.302

> <VdW6>
-6.786

> <VdW12>
8.088

> <Bond>
0.134

> <Angle>
2.720

> <Pdih>
4.746

> <Idih>
0.000

> <Tether>
0.000

$$$$
VeraChem MOL file


 22 21  0  0  0  0  0  0  0  0999 V2000     
   18.6282   22.3183   24.0827 C   0  0  0  0  0  0  0  0  0  0  0  0
   17.4233   22.4480   24.1709 O   0  5  0  0  0  0  0  0  0  0  0  0
   19.3997   23.2512   23.9778 O   0  0  0  0  0  0  0  0  0  0  0  0
   19.2021   20.9059   24.0809 C   0  0  0  0  0  0  0  0  0  0  0  0
   18.5624   20.2774   24.7122 H   0  0  0  0  0  0  0  0  0  0  0  0
   20.1912   20.9394   24.5534 H   0  0  0  0  0  0  0  0  0  0  0  0
   19.3090   20.3016   22.6591 C   0  0  0  0  0  0  0  0  0  0  0  0
   18.3130   20.2872   22.1951 H   0  0  0  0  0  0  0  0  0  0  0  0
   19.9417   20.9492   22.0363 H   0  0  0  0  0  0  0  0  0  0  0  0
   19.8923   18.8723   22.6844 C   0  0  0  0  0  0  0  0  0  0  0  0
   19.2582   18.2280   23.3087 H   0  0  0  0  0  0  0  0  0  0  0  0
   20.8874   18.8901   23.1499 H   0  0  0  0  0  0  0  0  0  0  0  0
   19.9978   18.2726   21.2657 C   0  0  0  0  0  0  0  0  0  0  0  0
   19.0029   18.2547   20.7998 H   0  0  0  0  0  0  0  0  0  0  0  0
   20.6318   18.9167   20.6410 H   0  0  0  0  0  0  0  0  0  0  0  0
   20.5807   16.8441   21.2901 C   0  0  0  0  0  0  0  0  0  0  0  0
   19.9479   16.1962   21.9125 H   0  0  0  0  0  0  0  0  0  0  0  0
   21.5768   16.8582   21.7537 H   0  0  0  0  0  0  0  0  0  0  0  0
   20.6843   16.2487   19.8716 C   0  0  0  0  0  0  0  0  0  0  0  0
   21.3377   16.8604   19.2357 H   0  0  0  0  0  0  0  0  0  0  0  0
   19.6965   16.1936   19.3956 H   0  0  0  0  0  0  0  0  0  0  0  0
   21.1003   15.2335   19.9076 H   0  0  0  0  0  0  0  0  0  0  0  0
  1  2  1  0  0  0  0
  1  3  2  0  0  0  0
  1  4  1  0  0  0  0
  4  5  1  0  0  0  0
  4  6  1  0  0  0  0
  4  7  1  0  0  0  0
  7  8  1  0  0  0  0
  7  9  1  0  0  0  0
  7 10  1  0  0  0  0
 10 11  1  0  0  0  0
 10 12  1  0  0  0  0
 10 13  1  0  0  0  0
 13 14  1  0  0  0  0
 13 15  1  0  0  0  0
 13 16  1  0  0  0  0
 16 17  1  0  0  0  0
 16 18  1  0  0  0  0
 16 19  1  0  0  0  0
 19 20  1  0  0  0  0
 19 21  1  0  0  0  0
 19 22  1  0  0  0  0
M  END
> <VConfSearch Rank>
682

> <Conf_Id>
10

> <Delta U+W>
-1.291

> <U+W>
-54.451

> <U>
5.779

> <W>
-60.230

> <W(PB)>
-62.557

> <W(SA)>
2.328

> <Valence>
7.101

> <Coulomb>
-2.079

> <VdW>
0.757

> <VdW6>
-6.496

> <VdW12>
7.253

> <Bond>
0.100

> <Angle>
2.262

> <Pdih>
4.738

> <Idih>
0.001

> <Tether>
0.000

$$$$
VeraChem MOL file


 22 21  0  0  0  0  0  0  0  0999 V2000     
   20.3873   22.6766   21.2620 C   0  0  0  0  0  0  0  0  0  0  0  0
   20.0980   22.9093   20.1050 O   0  5  0  0  0  0  0  0  0  0  0  0
   20.3351   23.5059   22.1486 O   0  0  0  0  0  0  0  0  0  0  0  0
   20.8195   21.2605   21.6253 C   0  0  0  0  0  0  0  0  0  0  0  0
   21.5425   21.3251   22.4473 H   0  0  0  0  0  0  0  0  0  0  0  0
   21.3459   20.8332   20.7633 H   0  0  0  0  0  0  0  0  0  0  0  0
   19.6310   20.3535   22.0291 C   0  0  0  0  0  0  0  0  0  0  0  0
   19.1069   20.8020   22.8844 H   0  0  0  0  0  0  0  0  0  0  0  0
   18.9104   20.3091   21.2007 H   0  0  0  0  0  0  0  0  0  0  0  0
   20.0947   18.9260   22.3919 C   0  0  0  0  0  0  0  0  0  0  0  0
   20.8132   18.9732   23.2215 H   0  0  0  0  0  0  0  0  0  0  0  0
   20.6228   18.4902   21.5338 H   0  0  0  0  0  0  0  0  0  0  0  0
   18.9043   18.0236   22.7907 C   0  0  0  0  0  0  0  0  0  0  0  0
   18.3452   18.5077   23.6030 H   0  0  0  0  0  0  0  0  0  0  0  0
   18.2088   17.9331   21.9451 H   0  0  0  0  0  0  0  0  0  0  0  0
   19.3321   16.6140   23.2614 C   0  0  0  0  0  0  0  0  0  0  0  0
   18.4456   16.0832   23.6351 H   0  0  0  0  0  0  0  0  0  0  0  0
   20.0231   16.7004   24.1113 H   0  0  0  0  0  0  0  0  0  0  0  0
   19.9838   15.7685   22.1458 C   0  0  0  0  0  0  0  0  0  0  0  0
   20.1870   14.7512   22.5044 H   0  0  0  0  0  0  0  0  0  0  0  0
   20.9375   16.2020   21.8197 H   0  0  0  0  0  0  0  0  0  0  0  0
   19.3227   15.6933   21.2727 H   0  0  0  0  0  0  0  0  0  0  0  0
  1  2  1  0  0  0  0
  1  3  2  0  0  0  0
  1  4  1  0  0  0  0
  4  5  1  0  0  0  0
  4  6  1  0  0  0  0
  4  7  1  0  0  0  0
  7  8  1  0  0  0  0
  7  9  1  0  0  0  0
  7 10  1  0  0  0  0
 10 11  1  0  0  0  0
 10 12  1  0  0  0  0
 10 13  1  0  0  0  0
 13 14  1  0  0  0  0
 13 15  1  0  0  0  0
 13 16  1  0  0  0  0
 16 17  1  0  0  0  0
 16 18  1  0  0  0  0
 16 19  1  0  0  0  0
 19 20  1  0  0  0  0
 19 21  1  0  0  0  0
 19 22  1  0  0  0  0
M  END
> <VConfSearch Rank>
683

> <Conf_Id>
37

> <Delta U+W>
-0.345

> <U+W>
-53.504

> <U>
6.751

> <W>
-60.255

> <W(PB)>
-62.592

> <W(SA)>
2.336

> <Valence>
7.602

> <Coulomb>
-1.744

> <VdW>
0.894

> <VdW6>
-7.110

> <VdW12>
8.004

> <Bond>
0.131

> <Angle>
2.489

> <Pdih>
4.982

> <Idih>
0.001

> <Tether>
0.000

$$$$
VeraChem MOL file


 22 21  0  0  0  0  0  0  0  0999 V2000     
   22.5295   16.3504   23.0129 C   0  0  0  0  0  0  0  0  0  0  0  0
   23.6313   16.8419   23.1578 O   0  5  0  0  0  0  0  0  0  0  0  0
   22.3458   15.2078   22.6426 O   0  0  0  0  0  0  0  0  0  0  0  0
   21.3101   17.2223   23.2901 C   0  0  0  0  0  0  0  0  0  0  0  0
   21.5681   17.9236   24.0928 H   0  0  0  0  0  0  0  0  0  0  0  0
   20.5086   16.5767   23.6689 H   0  0  0  0  0  0  0  0  0  0  0  0
   20.8266   17.9963   22.0390 C   0  0  0  0  0  0  0  0  0  0  0  0
   21.6440   18.6283   21.6648 H   0  0  0  0  0  0  0  0  0  0  0  0
   20.5854   17.2807   21.2408 H   0  0  0  0  0  0  0  0  0  0  0  0
   19.5916   18.8709   22.3458 C   0  0  0  0  0  0  0  0  0  0  0  0
   19.8410   19.5767   23.1488 H   0  0  0  0  0  0  0  0  0  0  0  0
   18.7755   18.2363   22.7174 H   0  0  0  0  0  0  0  0  0  0  0  0
   19.1152   19.6444   21.0947 C   0  0  0  0  0  0  0  0  0  0  0  0
   19.9118   20.3182   20.7504 H   0  0  0  0  0  0  0  0  0  0  0  0
   18.9377   18.9302   20.2790 H   0  0  0  0  0  0  0  0  0  0  0  0
   17.8187   20.4539   21.3291 C   0  0  0  0  0  0  0  0  0  0  0  0
   17.0177   19.7822   21.6674 H   0  0  0  0  0  0  0  0  0  0  0  0
   17.4869   20.8735   20.3693 H   0  0  0  0  0  0  0  0  0  0  0  0
   17.9923   21.6066   22.3417 C   0  0  0  0  0  0  0  0  0  0  0  0
   18.8087   22.2755   22.0395 H   0  0  0  0  0  0  0  0  0  0  0  0
   18.2119   21.2270   23.3473 H   0  0  0  0  0  0  0  0  0  0  0  0
   17.0729   22.2030   22.4055 H   0  0  0  0  0  0  0  0  0  0  0  0
  1  2  1  0  0  0  0
  1  3  2  0  0  0  0
  1  4  1  0  0  0  0
  4  5  1  0  0  0  0
  4  6  1  0  0  0  0
  4  7  1  0  0  0  0
  7  8  1  0  0  0  0
  7  9  1  0  0  0  0
  7 10  1  0  0  0  0
 10 11  1  0  0  0  0
 10 12  1  0  0  0  0
 10 13  1  0  0  0  0
 13 14  1  0  0  0  0
 13 15  1  0  0  0  0
 13 16  1  0  0  0  0
 16 17  1  0  0  0  0
 16 18  1  0  0  0  0
 16 19  1  0  0  0  0
 19 20  1  0  0  0  0
 19 21  1  0  0  0  0
 19 22  1  0  0  0  0
M  END
> <VConfSearch Rank>
684

> <Conf_Id>
38

> <Delta U+W>
-0.439

> <U+W>
-53.598

> <U>
6.751

> <W>
-60.350

> <W(PB)>
-62.659

> <W(SA)>
2.309

> <Valence>
7.602

> <Coulomb>
-1.744

> <VdW>
0.893

> <VdW6>
-7.110

> <VdW12>
8.004

> <Bond>
0.131

> <Angle>
2.489

> <Pdih>
4.981

> <Idih>
0.001

> <Tether>
0.000

$$$$
VeraChem MOL file


 22 21  0  0  0  0  0  0  0  0999 V2000     
   19.1101   18.1326   18.6422 C   0  0  0  0  0  0  0  0  0  0  0  0
   19.9608   18.0228   17.7815 O   0  5  0  0  0  0  0  0  0  0  0  0
   17.9349   18.3305   18.4052 O   0  0  0  0  0  0  0  0  0  0  0  0
   19.5451   18.0393   20.1004 C   0  0  0  0  0  0  0  0  0  0  0  0
   20.3972   17.3515   20.1577 H   0  0  0  0  0  0  0  0  0  0  0  0
   18.7223   17.5862   20.6644 H   0  0  0  0  0  0  0  0  0  0  0  0
   19.9284   19.4171   20.7010 C   0  0  0  0  0  0  0  0  0  0  0  0
   20.6851   19.8832   20.0548 H   0  0  0  0  0  0  0  0  0  0  0  0
   19.0538   20.0820   20.6832 H   0  0  0  0  0  0  0  0  0  0  0  0
   20.4920   19.3323   22.1397 C   0  0  0  0  0  0  0  0  0  0  0  0
   20.8626   20.3270   22.4180 H   0  0  0  0  0  0  0  0  0  0  0  0
   21.3608   18.6603   22.1555 H   0  0  0  0  0  0  0  0  0  0  0  0
   19.4484   18.8621   23.1826 C   0  0  0  0  0  0  0  0  0  0  0  0
   18.5788   19.5331   23.1654 H   0  0  0  0  0  0  0  0  0  0  0  0
   19.0792   17.8661   22.9071 H   0  0  0  0  0  0  0  0  0  0  0  0
   20.0110   18.7817   24.6211 C   0  0  0  0  0  0  0  0  0  0  0  0
   20.8881   18.1203   24.6403 H   0  0  0  0  0  0  0  0  0  0  0  0
   19.2559   18.3139   25.2679 H   0  0  0  0  0  0  0  0  0  0  0  0
   20.3841   20.1585   25.2126 C   0  0  0  0  0  0  0  0  0  0  0  0
   21.2223   20.6146   24.6714 H   0  0  0  0  0  0  0  0  0  0  0  0
   20.6851   20.0555   26.2631 H   0  0  0  0  0  0  0  0  0  0  0  0
   19.5309   20.8481   25.1718 H   0  0  0  0  0  0  0  0  0  0  0  0
  1  2  1  0  0  0  0
  1  3  2  0  0  0  0
  1  4  1  0  0  0  0
  4  5  1  0  0  0  0
  4  6  1  0  0  0  0
  4  7  1  0  0  0  0
  7  8  1  0  0  0  0
  7  9  1  0  0  0  0
  7 10  1  0  0  0  0
 10 11  1  0  0  0  0
 10 12  1  0  0  0  0
 10 13  1  0  0  0  0
 13 14  1  0  0  0  0
 13 15  1  0  0  0  0
 13 16  1  0  0  0  0
 16 17  1  0  0  0  0
 16 18  1  0  0  0  0
 16 19  1  0  0  0  0
 19 20  1  0  0  0  0
 19 21  1  0  0  0  0
 19 22  1  0  0  0  0
M  END
> <VConfSearch Rank>
685

> <Conf_Id>
60

> <Delta U+W>
0.386

> <U+W>
-52.773

> <U>
7.689

> <W>
-60.463

> <W(PB)>
-62.772

> <W(SA)>
2.309

> <Valence>
8.197

> <Coulomb>
-1.561

> <VdW>
1.053

> <VdW6>
-7.737

> <VdW12>
8.790

> <Bond>
0.181

> <Angle>
2.780

> <Pdih>
5.235

> <Idih>
0.001

> <Tether>
0.000

$$$$
VeraChem MOL file


 22 21  0  0  0  0  0  0  0  0999 V2000     
   16.4958   20.2858   23.2989 C   0  0  0  0  0  0  0  0  0  0  0  0
   15.6292   19.8926   22.5432 O   0  5  0  0  0  0  0  0  0  0  0  0
   16.3591   21.2373   24.0422 O   0  0  0  0  0  0  0  0  0  0  0  0
   17.8362   19.5595   23.2981 C   0  0  0  0  0  0  0  0  0  0  0  0
   17.6411   18.5020   23.0880 H   0  0  0  0  0  0  0  0  0  0  0  0
   18.2556   19.6189   24.3096 H   0  0  0  0  0  0  0  0  0  0  0  0
   18.8362   20.1478   22.2688 C   0  0  0  0  0  0  0  0  0  0  0  0
   18.4271   20.0386   21.2549 H   0  0  0  0  0  0  0  0  0  0  0  0
   18.9314   21.2275   22.4497 H   0  0  0  0  0  0  0  0  0  0  0  0
   20.2444   19.5097   22.3364 C   0  0  0  0  0  0  0  0  0  0  0  0
   20.6469   19.6134   23.3532 H   0  0  0  0  0  0  0  0  0  0  0  0
   20.9090   20.0838   21.6784 H   0  0  0  0  0  0  0  0  0  0  0  0
   20.2655   18.0197   21.9152 C   0  0  0  0  0  0  0  0  0  0  0  0
   19.6038   17.4439   22.5745 H   0  0  0  0  0  0  0  0  0  0  0  0
   19.8612   17.9159   20.8991 H   0  0  0  0  0  0  0  0  0  0  0  0
   21.6739   17.3836   21.9786 C   0  0  0  0  0  0  0  0  0  0  0  0
   21.5798   16.3035   21.8001 H   0  0  0  0  0  0  0  0  0  0  0  0
   22.0867   17.4955   22.9907 H   0  0  0  0  0  0  0  0  0  0  0  0
   22.6605   17.9713   20.9461 C   0  0  0  0  0  0  0  0  0  0  0  0
   22.2529   17.9014   19.9292 H   0  0  0  0  0  0  0  0  0  0  0  0
   23.6104   17.4216   20.9677 H   0  0  0  0  0  0  0  0  0  0  0  0
   22.8827   19.0246   21.1570 H   0  0  0  0  0  0  0  0  0  0  0  0
  1  2  1  0  0  0  0
  1  3  2  0  0  0  0
  1  4  1  0  0  0  0
  4  5  1  0  0  0  0
  4  6  1  0  0  0  0
  4  7  1  0  0  0  0
  7  8  1  0  0  0  0
  7  9  1  0  0  0  0
  7 10  1  0  0  0  0
 10 11  1  0  0  0  0
 10 12  1  0  0  0  0
 10 13  1  0  0  0  0
 13 14  1  0  0  0  0
 13 15  1  0  0  0  0
 13 16  1  0  0  0  0
 16 17  1  0  0  0  0
 16 18  1  0  0  0  0
 16 19  1  0  0  0  0
 19 20  1  0  0  0  0
 19 21  1  0  0  0  0
 19 22  1  0  0  0  0
M  END
> <VConfSearch Rank>
686

> <Conf_Id>
28

> <Delta U+W>
0.351

> <U+W>
-52.808

> <U>
7.689

> <W>
-60.498

> <W(PB)>
-62.768

> <W(SA)>
2.270

> <Valence>
8.197

> <Coulomb>
-1.561

> <VdW>
1.053

> <VdW6>
-7.737

> <VdW12>
8.791

> <Bond>
0.181

> <Angle>
2.780

> <Pdih>
5.235

> <Idih>
0.001

> <Tether>
0.000

$$$$
VeraChem MOL file


 22 21  0  0  0  0  0  0  0  0999 V2000     
   18.0360   22.0436   22.9747 C   0  0  0  0  0  0  0  0  0  0  0  0
   17.7883   22.2854   24.1394 O   0  5  0  0  0  0  0  0  0  0  0  0
   18.4125   22.8810   22.1788 O   0  0  0  0  0  0  0  0  0  0  0  0
   17.8851   20.6060   22.4899 C   0  0  0  0  0  0  0  0  0  0  0  0
   17.5821   20.6317   21.4363 H   0  0  0  0  0  0  0  0  0  0  0  0
   17.0658   20.1415   23.0518 H   0  0  0  0  0  0  0  0  0  0  0  0
   19.1831   19.7771   22.6522 C   0  0  0  0  0  0  0  0  0  0  0  0
   19.9915   20.2723   22.0984 H   0  0  0  0  0  0  0  0  0  0  0  0
   19.4779   19.7685   23.7106 H   0  0  0  0  0  0  0  0  0  0  0  0
   19.0033   18.3261   22.1489 C   0  0  0  0  0  0  0  0  0  0  0  0
   18.7601   18.3327   21.0775 H   0  0  0  0  0  0  0  0  0  0  0  0
   18.1419   17.8751   22.6603 H   0  0  0  0  0  0  0  0  0  0  0  0
   20.2414   17.4311   22.3932 C   0  0  0  0  0  0  0  0  0  0  0  0
   20.4824   17.4210   23.4650 H   0  0  0  0  0  0  0  0  0  0  0  0
   19.9826   16.3980   22.1235 H   0  0  0  0  0  0  0  0  0  0  0  0
   21.4845   17.8641   21.5837 C   0  0  0  0  0  0  0  0  0  0  0  0
   21.8082   18.8662   21.8941 H   0  0  0  0  0  0  0  0  0  0  0  0
   21.2293   17.9253   20.5168 H   0  0  0  0  0  0  0  0  0  0  0  0
   22.6547   16.8781   21.7744 C   0  0  0  0  0  0  0  0  0  0  0  0
   22.3789   15.8704   21.4371 H   0  0  0  0  0  0  0  0  0  0  0  0
   22.9490   16.8180   22.8304 H   0  0  0  0  0  0  0  0  0  0  0  0
   23.5304   17.2008   21.1963 H   0  0  0  0  0  0  0  0  0  0  0  0
  1  2  1  0  0  0  0
  1  3  2  0  0  0  0
  1  4  1  0  0  0  0
  4  5  1  0  0  0  0
  4  6  1  0  0  0  0
  4  7  1  0  0  0  0
  7  8  1  0  0  0  0
  7  9  1  0  0  0  0
  7 10  1  0  0  0  0
 10 11  1  0  0  0  0
 10 12  1  0  0  0  0
 10 13  1  0  0  0  0
 13 14  1  0  0  0  0
 13 15  1  0  0  0  0
 13 16  1  0  0  0  0
 16 17  1  0  0  0  0
 16 18  1  0  0  0  0
 16 19  1  0  0  0  0
 19 20  1  0  0  0  0
 19 21  1  0  0  0  0
 19 22  1  0  0  0  0
M  END
> <VConfSearch Rank>
687

> <Conf_Id>
50

> <Delta U+W>
-0.486

> <U+W>
-53.646

> <U>
7.026

> <W>
-60.672

> <W(PB)>
-62.964

> <W(SA)>
2.292

> <Valence>
7.637

> <Coulomb>
-1.488

> <VdW>
0.877

> <VdW6>
-7.165

> <VdW12>
8.043

> <Bond>
0.134

> <Angle>
2.513

> <Pdih>
4.990

> <Idih>
0.001

> <Tether>
0.000

$$$$
VeraChem MOL file


 22 21  0  0  0  0  0  0  0  0999 V2000     
   19.2357   18.4489   18.6021 C   0  0  0  0  0  0  0  0  0  0  0  0
   20.1776   17.9979   17.9809 O   0  5  0  0  0  0  0  0  0  0  0  0
   18.5213   19.3403   18.1881 O   0  0  0  0  0  0  0  0  0  0  0  0
   18.9469   17.8788   19.9862 C   0  0  0  0  0  0  0  0  0  0  0  0
   19.2284   16.8189   19.9835 H   0  0  0  0  0  0  0  0  0  0  0  0
   17.8644   17.9265   20.1553 H   0  0  0  0  0  0  0  0  0  0  0  0
   19.6970   18.6290   21.1144 C   0  0  0  0  0  0  0  0  0  0  0  0
   20.7784   18.5798   20.9259 H   0  0  0  0  0  0  0  0  0  0  0  0
   19.4144   19.6895   21.0838 H   0  0  0  0  0  0  0  0  0  0  0  0
   19.3825   18.0335   22.5064 C   0  0  0  0  0  0  0  0  0  0  0  0
   19.6004   16.9568   22.4914 H   0  0  0  0  0  0  0  0  0  0  0  0
   18.3087   18.1304   22.7172 H   0  0  0  0  0  0  0  0  0  0  0  0
   20.1955   18.6816   23.6520 C   0  0  0  0  0  0  0  0  0  0  0  0
   20.0048   18.1185   24.5758 H   0  0  0  0  0  0  0  0  0  0  0  0
   21.2695   18.5815   23.4436 H   0  0  0  0  0  0  0  0  0  0  0  0
   19.8476   20.1684   23.8904 C   0  0  0  0  0  0  0  0  0  0  0  0
   18.7653   20.2753   24.0466 H   0  0  0  0  0  0  0  0  0  0  0  0
   20.1042   20.7640   23.0046 H   0  0  0  0  0  0  0  0  0  0  0  0
   20.5996   20.7362   25.1110 C   0  0  0  0  0  0  0  0  0  0  0  0
   21.6861   20.6668   24.9696 H   0  0  0  0  0  0  0  0  0  0  0  0
   20.3369   20.1876   26.0250 H   0  0  0  0  0  0  0  0  0  0  0  0
   20.3446   21.7927   25.2651 H   0  0  0  0  0  0  0  0  0  0  0  0
  1  2  1  0  0  0  0
  1  3  2  0  0  0  0
  1  4  1  0  0  0  0
  4  5  1  0  0  0  0
  4  6  1  0  0  0  0
  4  7  1  0  0  0  0
  7  8  1  0  0  0  0
  7  9  1  0  0  0  0
  7 10  1  0  0  0  0
 10 11  1  0  0  0  0
 10 12  1  0  0  0  0
 10 13  1  0  0  0  0
 13 14  1  0  0  0  0
 13 15  1  0  0  0  0
 13 16  1  0  0  0  0
 16 17  1  0  0  0  0
 16 18  1  0  0  0  0
 16 19  1  0  0  0  0
 19 20  1  0  0  0  0
 19 21  1  0  0  0  0
 19 22  1  0  0  0  0
M  END
> <VConfSearch Rank>
688

> <Conf_Id>
51

> <Delta U+W>
-0.517

> <U+W>
-53.677

> <U>
7.026

> <W>
-60.703

> <W(PB)>
-63.007

> <W(SA)>
2.304

> <Valence>
7.638

> <Coulomb>
-1.488

> <VdW>
0.877

> <VdW6>
-7.165

> <VdW12>
8.042

> <Bond>
0.134

> <Angle>
2.513

> <Pdih>
4.990

> <Idih>
0.001

> <Tether>
0.000

$$$$
VeraChem MOL file


 22 21  0  0  0  0  0  0  0  0999 V2000     
   21.1268   21.1888   20.0469 C   0  0  0  0  0  0  0  0  0  0  0  0
   22.1872   20.8754   19.5428 O   0  5  0  0  0  0  0  0  0  0  0  0
   20.0994   21.3368   19.4149 O   0  0  0  0  0  0  0  0  0  0  0  0
   21.0899   21.4277   21.5538 C   0  0  0  0  0  0  0  0  0  0  0  0
   20.1971   22.0181   21.7931 H   0  0  0  0  0  0  0  0  0  0  0  0
   21.9578   22.0472   21.8090 H   0  0  0  0  0  0  0  0  0  0  0  0
   21.1149   20.1279   22.3993 C   0  0  0  0  0  0  0  0  0  0  0  0
   21.9992   19.5345   22.1284 H   0  0  0  0  0  0  0  0  0  0  0  0
   21.2255   20.3943   23.4592 H   0  0  0  0  0  0  0  0  0  0  0  0
   19.8380   19.2768   22.2185 C   0  0  0  0  0  0  0  0  0  0  0  0
   19.7295   18.9918   21.1629 H   0  0  0  0  0  0  0  0  0  0  0  0
   18.9561   19.8785   22.4780 H   0  0  0  0  0  0  0  0  0  0  0  0
   19.8704   18.0046   23.0925 C   0  0  0  0  0  0  0  0  0  0  0  0
   20.7524   17.4034   22.8325 H   0  0  0  0  0  0  0  0  0  0  0  0
   19.9759   18.2870   24.1490 H   0  0  0  0  0  0  0  0  0  0  0  0
   18.5958   17.1537   22.9119 C   0  0  0  0  0  0  0  0  0  0  0  0
   18.4879   16.8677   21.8564 H   0  0  0  0  0  0  0  0  0  0  0  0
   17.7114   17.7513   23.1728 H   0  0  0  0  0  0  0  0  0  0  0  0
   18.6321   15.8838   23.7857 C   0  0  0  0  0  0  0  0  0  0  0  0
   19.4904   15.2513   23.5239 H   0  0  0  0  0  0  0  0  0  0  0  0
   17.7188   15.2911   23.6448 H   0  0  0  0  0  0  0  0  0  0  0  0
   18.7081   16.1416   24.8502 H   0  0  0  0  0  0  0  0  0  0  0  0
  1  2  1  0  0  0  0
  1  3  2  0  0  0  0
  1  4  1  0  0  0  0
  4  5  1  0  0  0  0
  4  6  1  0  0  0  0
  4  7  1  0  0  0  0
  7  8  1  0  0  0  0
  7  9  1  0  0  0  0
  7 10  1  0  0  0  0
 10 11  1  0  0  0  0
 10 12  1  0  0  0  0
 10 13  1  0  0  0  0
 13 14  1  0  0  0  0
 13 15  1  0  0  0  0
 13 16  1  0  0  0  0
 16 17  1  0  0  0  0
 16 18  1  0  0  0  0
 16 19  1  0  0  0  0
 19 20  1  0  0  0  0
 19 21  1  0  0  0  0
 19 22  1  0  0  0  0
M  END
> <VConfSearch Rank>
689

> <Conf_Id>
43

> <Delta U+W>
-0.129

> <U+W>
-53.289

> <U>
7.937

> <W>
-61.225

> <W(PB)>
-63.523

> <W(SA)>
2.297

> <Valence>
7.358

> <Coulomb>
-0.022

> <VdW>
0.601

> <VdW6>
-7.363

> <VdW12>
7.964

> <Bond>
0.121

> <Angle>
2.425

> <Pdih>
4.811

> <Idih>
0.000

> <Tether>
0.000

$$$$
VeraChem MOL file


 22 21  0  0  0  0  0  0  0  0999 V2000     
   18.7063   20.6178   25.2919 C   0  0  0  0  0  0  0  0  0  0  0  0
   18.6177   19.8481   26.2281 O   0  5  0  0  0  0  0  0  0  0  0  0
   17.7682   21.2535   24.8530 O   0  0  0  0  0  0  0  0  0  0  0  0
   20.0755   20.8089   24.6454 C   0  0  0  0  0  0  0  0  0  0  0  0
   20.8056   20.9323   25.4539 H   0  0  0  0  0  0  0  0  0  0  0  0
   20.0673   21.7481   24.0790 H   0  0  0  0  0  0  0  0  0  0  0  0
   20.5101   19.6351   23.7297 C   0  0  0  0  0  0  0  0  0  0  0  0
   21.5528   19.7907   23.4216 H   0  0  0  0  0  0  0  0  0  0  0  0
   20.4862   18.6980   24.3033 H   0  0  0  0  0  0  0  0  0  0  0  0
   19.6218   19.5019   22.4724 C   0  0  0  0  0  0  0  0  0  0  0  0
   19.6386   20.4453   21.9096 H   0  0  0  0  0  0  0  0  0  0  0  0
   18.5790   19.3288   22.7726 H   0  0  0  0  0  0  0  0  0  0  0  0
   20.0912   18.3481   21.5604 C   0  0  0  0  0  0  0  0  0  0  0  0
   21.1329   18.5203   21.2566 H   0  0  0  0  0  0  0  0  0  0  0  0
   20.0741   17.4050   22.1239 H   0  0  0  0  0  0  0  0  0  0  0  0
   19.2042   18.2139   20.3050 C   0  0  0  0  0  0  0  0  0  0  0  0
   19.2202   19.1550   19.7378 H   0  0  0  0  0  0  0  0  0  0  0  0
   18.1615   18.0397   20.6050 H   0  0  0  0  0  0  0  0  0  0  0  0
   19.6755   17.0604   19.3970 C   0  0  0  0  0  0  0  0  0  0  0  0
   20.7062   17.2248   19.0562 H   0  0  0  0  0  0  0  0  0  0  0  0
   19.0340   16.9794   18.5098 H   0  0  0  0  0  0  0  0  0  0  0  0
   19.6395   16.1012   19.9300 H   0  0  0  0  0  0  0  0  0  0  0  0
  1  2  1  0  0  0  0
  1  3  2  0  0  0  0
  1  4  1  0  0  0  0
  4  5  1  0  0  0  0
  4  6  1  0  0  0  0
  4  7  1  0  0  0  0
  7  8  1  0  0  0  0
  7  9  1  0  0  0  0
  7 10  1  0  0  0  0
 10 11  1  0  0  0  0
 10 12  1  0  0  0  0
 10 13  1  0  0  0  0
 13 14  1  0  0  0  0
 13 15  1  0  0  0  0
 13 16  1  0  0  0  0
 16 17  1  0  0  0  0
 16 18  1  0  0  0  0
 16 19  1  0  0  0  0
 19 20  1  0  0  0  0
 19 21  1  0  0  0  0
 19 22  1  0  0  0  0
M  END
> <VConfSearch Rank>
690

> <Conf_Id>
44

> <Delta U+W>
-0.155

> <U+W>
-53.314

> <U>
7.937

> <W>
-61.252

> <W(PB)>
-63.556

> <W(SA)>
2.304

> <Valence>
7.358

> <Coulomb>
-0.021

> <VdW>
0.600

> <VdW6>
-7.363

> <VdW12>
7.964

> <Bond>
0.121

> <Angle>
2.425

> <Pdih>
4.811

> <Idih>
0.001

> <Tether>
0.000

$$$$
VeraChem MOL file


 22 21  0  0  0  0  0  0  0  0999 V2000     
   21.0493   15.8392   21.4933 C   0  0  0  0  0  0  0  0  0  0  0  0
   21.2659   15.7384   20.3017 O   0  5  0  0  0  0  0  0  0  0  0  0
   20.4264   15.0165   22.1352 O   0  0  0  0  0  0  0  0  0  0  0  0
   21.6073   17.0566   22.2252 C   0  0  0  0  0  0  0  0  0  0  0  0
   22.6477   17.1830   21.9034 H   0  0  0  0  0  0  0  0  0  0  0  0
   21.6318   16.8389   23.2999 H   0  0  0  0  0  0  0  0  0  0  0  0
   20.8216   18.3678   21.9625 C   0  0  0  0  0  0  0  0  0  0  0  0
   21.3834   19.2029   22.3998 H   0  0  0  0  0  0  0  0  0  0  0  0
   20.7712   18.5510   20.8802 H   0  0  0  0  0  0  0  0  0  0  0  0
   19.3928   18.3330   22.5561 C   0  0  0  0  0  0  0  0  0  0  0  0
   19.4467   18.1920   23.6442 H   0  0  0  0  0  0  0  0  0  0  0  0
   18.8582   17.4599   22.1575 H   0  0  0  0  0  0  0  0  0  0  0  0
   18.5616   19.5986   22.2377 C   0  0  0  0  0  0  0  0  0  0  0  0
   18.5082   19.7393   21.1494 H   0  0  0  0  0  0  0  0  0  0  0  0
   17.5311   19.4324   22.5800 H   0  0  0  0  0  0  0  0  0  0  0  0
   19.1096   20.8813   22.9031 C   0  0  0  0  0  0  0  0  0  0  0  0
   20.1100   21.1121   22.5142 H   0  0  0  0  0  0  0  0  0  0  0  0
   19.2146   20.7217   23.9851 H   0  0  0  0  0  0  0  0  0  0  0  0
   18.1837   22.0884   22.6512 C   0  0  0  0  0  0  0  0  0  0  0  0
   18.0825   22.2876   21.5763 H   0  0  0  0  0  0  0  0  0  0  0  0
   18.5877   22.9915   23.1268 H   0  0  0  0  0  0  0  0  0  0  0  0
   17.1819   21.9083   23.0626 H   0  0  0  0  0  0  0  0  0  0  0  0
  1  2  1  0  0  0  0
  1  3  2  0  0  0  0
  1  4  1  0  0  0  0
  4  5  1  0  0  0  0
  4  6  1  0  0  0  0
  4  7  1  0  0  0  0
  7  8  1  0  0  0  0
  7  9  1  0  0  0  0
  7 10  1  0  0  0  0
 10 11  1  0  0  0  0
 10 12  1  0  0  0  0
 10 13  1  0  0  0  0
 13 14  1  0  0  0  0
 13 15  1  0  0  0  0
 13 16  1  0  0  0  0
 16 17  1  0  0  0  0
 16 18  1  0  0  0  0
 16 19  1  0  0  0  0
 19 20  1  0  0  0  0
 19 21  1  0  0  0  0
 19 22  1  0  0  0  0
M  END
> <VConfSearch Rank>
691

> <Conf_Id>
53

> <Delta U+W>
0.723

> <U+W>
-52.436

> <U>
8.587

> <W>
-61.022

> <W(PB)>
-63.285

> <W(SA)>
2.263

> <Valence>
7.933

> <Coulomb>
-0.124

> <VdW>
0.778

> <VdW6>
-7.981

> <VdW12>
8.759

> <Bond>
0.160

> <Angle>
2.698

> <Pdih>
5.074

> <Idih>
0.001

> <Tether>
0.000

$$$$
VeraChem MOL file


 22 21  0  0  0  0  0  0  0  0999 V2000     
   18.2193   16.1490   21.4749 C   0  0  0  0  0  0  0  0  0  0  0  0
   18.7913   15.2119   21.9956 O   0  5  0  0  0  0  0  0  0  0  0  0
   17.2049   16.0356   20.8156 O   0  0  0  0  0  0  0  0  0  0  0  0
   18.7931   17.5467   21.6784 C   0  0  0  0  0  0  0  0  0  0  0  0
   18.5579   18.1446   20.7898 H   0  0  0  0  0  0  0  0  0  0  0  0
   19.8833   17.4521   21.7343 H   0  0  0  0  0  0  0  0  0  0  0  0
   18.2467   18.2404   22.9517 C   0  0  0  0  0  0  0  0  0  0  0  0
   17.1488   18.1978   22.9320 H   0  0  0  0  0  0  0  0  0  0  0  0
   18.5604   17.6698   23.8367 H   0  0  0  0  0  0  0  0  0  0  0  0
   18.6781   19.7202   23.1080 C   0  0  0  0  0  0  0  0  0  0  0  0
   18.1934   20.1120   24.0127 H   0  0  0  0  0  0  0  0  0  0  0  0
   18.2833   20.3185   22.2754 H   0  0  0  0  0  0  0  0  0  0  0  0
   20.2064   19.9360   23.2477 C   0  0  0  0  0  0  0  0  0  0  0  0
   20.3785   20.7592   23.9545 H   0  0  0  0  0  0  0  0  0  0  0  0
   20.6738   19.0476   23.6941 H   0  0  0  0  0  0  0  0  0  0  0  0
   20.8992   20.2962   21.9131 C   0  0  0  0  0  0  0  0  0  0  0  0
   20.4599   21.2183   21.5083 H   0  0  0  0  0  0  0  0  0  0  0  0
   20.7283   19.5128   21.1652 H   0  0  0  0  0  0  0  0  0  0  0  0
   22.4167   20.4953   22.0997 C   0  0  0  0  0  0  0  0  0  0  0  0
   22.6224   21.3031   22.8142 H   0  0  0  0  0  0  0  0  0  0  0  0
   22.8927   20.7571   21.1459 H   0  0  0  0  0  0  0  0  0  0  0  0
   22.8895   19.5777   22.4738 H   0  0  0  0  0  0  0  0  0  0  0  0
  1  2  1  0  0  0  0
  1  3  2  0  0  0  0
  1  4  1  0  0  0  0
  4  5  1  0  0  0  0
  4  6  1  0  0  0  0
  4  7  1  0  0  0  0
  7  8  1  0  0  0  0
  7  9  1  0  0  0  0
  7 10  1  0  0  0  0
 10 11  1  0  0  0  0
 10 12  1  0  0  0  0
 10 13  1  0  0  0  0
 13 14  1  0  0  0  0
 13 15  1  0  0  0  0
 13 16  1  0  0  0  0
 16 17  1  0  0  0  0
 16 18  1  0  0  0  0
 16 19  1  0  0  0  0
 19 20  1  0  0  0  0
 19 21  1  0  0  0  0
 19 22  1  0  0  0  0
M  END
> <VConfSearch Rank>
692

> <Conf_Id>
5

> <Delta U+W>
2.167

> <U+W>
-50.993

> <U>
10.045

> <W>
-61.037

> <W(PB)>
-63.303

> <W(SA)>
2.266

> <Valence>
10.100

> <Coulomb>
-0.883

> <VdW>
0.828

> <VdW6>
-8.177

> <VdW12>
9.005

> <Bond>
0.182

> <Angle>
2.988

> <Pdih>
6.930

> <Idih>
0.001

> <Tether>
0.000

$$$$
VeraChem MOL file


 22 21  0  0  0  0  0  0  0  0999 V2000     
   19.2867   15.8590   21.0945 C   0  0  0  0  0  0  0  0  0  0  0  0
   18.4402   15.3084   21.7704 O   0  5  0  0  0  0  0  0  0  0  0  0
   19.8610   15.3227   20.1676 O   0  0  0  0  0  0  0  0  0  0  0  0
   19.6656   17.2940   21.4426 C   0  0  0  0  0  0  0  0  0  0  0  0
   18.7647   17.7927   21.8174 H   0  0  0  0  0  0  0  0  0  0  0  0
   19.9645   17.8017   20.5178 H   0  0  0  0  0  0  0  0  0  0  0  0
   20.8030   17.3769   22.4917 C   0  0  0  0  0  0  0  0  0  0  0  0
   20.4563   16.9346   23.4359 H   0  0  0  0  0  0  0  0  0  0  0  0
   21.6421   16.7547   22.1509 H   0  0  0  0  0  0  0  0  0  0  0  0
   21.3287   18.8109   22.7520 C   0  0  0  0  0  0  0  0  0  0  0  0
   21.7680   19.2243   21.8339 H   0  0  0  0  0  0  0  0  0  0  0  0
   22.1565   18.7341   23.4702 H   0  0  0  0  0  0  0  0  0  0  0  0
   20.2760   19.7892   23.3322 C   0  0  0  0  0  0  0  0  0  0  0  0
   19.5208   19.2345   23.9057 H   0  0  0  0  0  0  0  0  0  0  0  0
   20.7767   20.4539   24.0495 H   0  0  0  0  0  0  0  0  0  0  0  0
   19.5973   20.6680   22.2562 C   0  0  0  0  0  0  0  0  0  0  0  0
   19.1077   20.0434   21.4995 H   0  0  0  0  0  0  0  0  0  0  0  0
   20.3595   21.2593   21.7303 H   0  0  0  0  0  0  0  0  0  0  0  0
   18.5555   21.6194   22.8781 C   0  0  0  0  0  0  0  0  0  0  0  0
   17.7616   21.0547   23.3843 H   0  0  0  0  0  0  0  0  0  0  0  0
   18.0880   22.2410   22.1034 H   0  0  0  0  0  0  0  0  0  0  0  0
   19.0228   22.2881   23.6129 H   0  0  0  0  0  0  0  0  0  0  0  0
  1  2  1  0  0  0  0
  1  3  2  0  0  0  0
  1  4  1  0  0  0  0
  4  5  1  0  0  0  0
  4  6  1  0  0  0  0
  4  7  1  0  0  0  0
  7  8  1  0  0  0  0
  7  9  1  0  0  0  0
  7 10  1  0  0  0  0
 10 11  1  0  0  0  0
 10 12  1  0  0  0  0
 10 13  1  0  0  0  0
 13 14  1  0  0  0  0
 13 15  1  0  0  0  0
 13 16  1  0  0  0  0
 16 17  1  0  0  0  0
 16 18  1  0  0  0  0
 16 19  1  0  0  0  0
 19 20  1  0  0  0  0
 19 21  1  0  0  0  0
 19 22  1  0  0  0  0
M  END
> <VConfSearch Rank>
693

> <Conf_Id>
6

> <Delta U+W>
2.118

> <U+W>
-51.042

> <U>
10.045

> <W>
-61.086

> <W(PB)>
-63.356

> <W(SA)>
2.270

> <Valence>
10.100

> <Coulomb>
-0.883

> <VdW>
0.828

> <VdW6>
-8.177

> <VdW12>
9.004

> <Bond>
0.182

> <Angle>
2.988

> <Pdih>
6.930

> <Idih>
0.001

> <Tether>
0.000

$$$$
VeraChem MOL file


 22 21  0  0  0  0  0  0  0  0999 V2000     
   17.9437   19.4755   24.6543 C   0  0  0  0  0  0  0  0  0  0  0  0
   18.5716   19.2897   25.6783 O   0  5  0  0  0  0  0  0  0  0  0  0
   17.0524   18.7428   24.2724 O   0  0  0  0  0  0  0  0  0  0  0  0
   18.2404   20.7333   23.8398 C   0  0  0  0  0  0  0  0  0  0  0  0
   17.9895   21.5838   24.4840 H   0  0  0  0  0  0  0  0  0  0  0  0
   17.5549   20.7744   22.9847 H   0  0  0  0  0  0  0  0  0  0  0  0
   19.7113   20.8806   23.3582 C   0  0  0  0  0  0  0  0  0  0  0  0
   19.8875   21.9397   23.1265 H   0  0  0  0  0  0  0  0  0  0  0  0
   20.4004   20.6320   24.1773 H   0  0  0  0  0  0  0  0  0  0  0  0
   20.0672   20.0564   22.0961 C   0  0  0  0  0  0  0  0  0  0  0  0
   21.0700   20.3571   21.7630 H   0  0  0  0  0  0  0  0  0  0  0  0
   19.3800   20.3159   21.2792 H   0  0  0  0  0  0  0  0  0  0  0  0
   20.0560   18.5270   22.3182 C   0  0  0  0  0  0  0  0  0  0  0  0
   20.6626   18.2775   23.1996 H   0  0  0  0  0  0  0  0  0  0  0  0
   19.0332   18.1875   22.5253 H   0  0  0  0  0  0  0  0  0  0  0  0
   20.5954   17.7678   21.0874 C   0  0  0  0  0  0  0  0  0  0  0  0
   21.6234   18.0912   20.8728 H   0  0  0  0  0  0  0  0  0  0  0  0
   19.9907   18.0177   20.2046 H   0  0  0  0  0  0  0  0  0  0  0  0
   20.5747   16.2419   21.3076 C   0  0  0  0  0  0  0  0  0  0  0  0
   21.1975   15.9609   22.1670 H   0  0  0  0  0  0  0  0  0  0  0  0
   20.9602   15.7178   20.4234 H   0  0  0  0  0  0  0  0  0  0  0  0
   19.5529   15.8862   21.4943 H   0  0  0  0  0  0  0  0  0  0  0  0
  1  2  1  0  0  0  0
  1  3  2  0  0  0  0
  1  4  1  0  0  0  0
  4  5  1  0  0  0  0
  4  6  1  0  0  0  0
  4  7  1  0  0  0  0
  7  8  1  0  0  0  0
  7  9  1  0  0  0  0
  7 10  1  0  0  0  0
 10 11  1  0  0  0  0
 10 12  1  0  0  0  0
 10 13  1  0  0  0  0
 13 14  1  0  0  0  0
 13 15  1  0  0  0  0
 13 16  1  0  0  0  0
 16 17  1  0  0  0  0
 16 18  1  0  0  0  0
 16 19  1  0  0  0  0
 19 20  1  0  0  0  0
 19 21  1  0  0  0  0
 19 22  1  0  0  0  0
M  END
> <VConfSearch Rank>
694

> <Conf_Id>
8

> <Delta U+W>
1.886

> <U+W>
-51.274

> <U>
11.237

> <W>
-62.510

> <W(PB)>
-64.777

> <W(SA)>
2.267

> <Valence>
9.029

> <Coulomb>
1.667

> <VdW>
0.540

> <VdW6>
-8.825

> <VdW12>
9.365

> <Bond>
0.186

> <Angle>
3.195

> <Pdih>
5.642

> <Idih>
0.007

> <Tether>
0.000

$$$$
VeraChem MOL file


 22 21  0  0  0  0  0  0  0  0999 V2000     
   19.3960   20.1496   25.2826 C   0  0  0  0  0  0  0  0  0  0  0  0
   19.9999   19.1986   25.7384 O   0  5  0  0  0  0  0  0  0  0  0  0
   18.3672   20.5848   25.7616 O   0  0  0  0  0  0  0  0  0  0  0  0
   19.9750   20.8561   24.0600 C   0  0  0  0  0  0  0  0  0  0  0  0
   21.0142   20.5346   23.9276 H   0  0  0  0  0  0  0  0  0  0  0  0
   20.0101   21.9274   24.2896 H   0  0  0  0  0  0  0  0  0  0  0  0
   19.1610   20.6381   22.7550 C   0  0  0  0  0  0  0  0  0  0  0  0
   18.1504   21.0442   22.9003 H   0  0  0  0  0  0  0  0  0  0  0  0
   19.6143   21.2253   21.9450 H   0  0  0  0  0  0  0  0  0  0  0  0
   19.0426   19.1600   22.3080 C   0  0  0  0  0  0  0  0  0  0  0  0
   18.3734   19.1218   21.4392 H   0  0  0  0  0  0  0  0  0  0  0  0
   18.5576   18.5711   23.0986 H   0  0  0  0  0  0  0  0  0  0  0  0
   20.4021   18.5162   21.9411 C   0  0  0  0  0  0  0  0  0  0  0  0
   20.8993   19.1132   21.1647 H   0  0  0  0  0  0  0  0  0  0  0  0
   21.0599   18.5333   22.8197 H   0  0  0  0  0  0  0  0  0  0  0  0
   20.2789   17.0491   21.4671 C   0  0  0  0  0  0  0  0  0  0  0  0
   19.7679   16.4530   22.2358 H   0  0  0  0  0  0  0  0  0  0  0  0
   21.2882   16.6266   21.3676 H   0  0  0  0  0  0  0  0  0  0  0  0
   19.5446   16.8989   20.1169 C   0  0  0  0  0  0  0  0  0  0  0  0
   18.4915   17.1954   20.1970 H   0  0  0  0  0  0  0  0  0  0  0  0
   19.5699   15.8541   19.7811 H   0  0  0  0  0  0  0  0  0  0  0  0
   20.0184   17.5144   19.3413 H   0  0  0  0  0  0  0  0  0  0  0  0
  1  2  1  0  0  0  0
  1  3  2  0  0  0  0
  1  4  1  0  0  0  0
  4  5  1  0  0  0  0
  4  6  1  0  0  0  0
  4  7  1  0  0  0  0
  7  8  1  0  0  0  0
  7  9  1  0  0  0  0
  7 10  1  0  0  0  0
 10 11  1  0  0  0  0
 10 12  1  0  0  0  0
 10 13  1  0  0  0  0
 13 14  1  0  0  0  0
 13 15  1  0  0  0  0
 13 16  1  0  0  0  0
 16 17  1  0  0  0  0
 16 18  1  0  0  0  0
 16 19  1  0  0  0  0
 19 20  1  0  0  0  0
 19 21  1  0  0  0  0
 19 22  1  0  0  0  0
M  END
> <VConfSearch Rank>
695

> <Conf_Id>
93

> <Delta U+W>
1.836

> <U+W>
-51.323

> <U>
10.427

> <W>
-61.751

> <W(PB)>
-63.980

> <W(SA)>
2.230

> <Valence>
8.446

> <Coulomb>
1.306

> <VdW>
0.676

> <VdW6>
-8.928

> <VdW12>
9.604

> <Bond>
0.209

> <Angle>
3.066

> <Pdih>
5.170

> <Idih>
0.001

> <Tether>
0.000

$$$$
VeraChem MOL file


 22 21  0  0  0  0  0  0  0  0999 V2000     
   21.5145   16.6587   22.9465 C   0  0  0  0  0  0  0  0  0  0  0  0
   22.7057   16.6962   23.1855 O   0  5  0  0  0  0  0  0  0  0  0  0
   21.0432   16.1251   21.9617 O   0  0  0  0  0  0  0  0  0  0  0  0
   20.5587   17.2904   23.9548 C   0  0  0  0  0  0  0  0  0  0  0  0
   20.8259   16.9015   24.9442 H   0  0  0  0  0  0  0  0  0  0  0  0
   19.5433   16.9346   23.7472 H   0  0  0  0  0  0  0  0  0  0  0  0
   20.6023   18.8430   23.9855 C   0  0  0  0  0  0  0  0  0  0  0  0
   19.9298   19.2069   24.7739 H   0  0  0  0  0  0  0  0  0  0  0  0
   21.6141   19.1596   24.2744 H   0  0  0  0  0  0  0  0  0  0  0  0
   20.2325   19.5252   22.6452 C   0  0  0  0  0  0  0  0  0  0  0  0
   20.9229   19.1940   21.8574 H   0  0  0  0  0  0  0  0  0  0  0  0
   20.3898   20.6050   22.7605 H   0  0  0  0  0  0  0  0  0  0  0  0
   18.7730   19.2607   22.2011 C   0  0  0  0  0  0  0  0  0  0  0  0
   18.6264   18.1818   22.0622 H   0  0  0  0  0  0  0  0  0  0  0  0
   18.0801   19.5724   22.9944 H   0  0  0  0  0  0  0  0  0  0  0  0
   18.3963   19.9665   20.8775 C   0  0  0  0  0  0  0  0  0  0  0  0
   17.4046   19.6142   20.5617 H   0  0  0  0  0  0  0  0  0  0  0  0
   19.0975   19.6684   20.0858 H   0  0  0  0  0  0  0  0  0  0  0  0
   18.3611   21.5063   20.9902 C   0  0  0  0  0  0  0  0  0  0  0  0
   19.3591   21.9179   21.1851 H   0  0  0  0  0  0  0  0  0  0  0  0
   17.6919   21.8258   21.7996 H   0  0  0  0  0  0  0  0  0  0  0  0
   17.9963   21.9507   20.0552 H   0  0  0  0  0  0  0  0  0  0  0  0
  1  2  1  0  0  0  0
  1  3  2  0  0  0  0
  1  4  1  0  0  0  0
  4  5  1  0  0  0  0
  4  6  1  0  0  0  0
  4  7  1  0  0  0  0
  7  8  1  0  0  0  0
  7  9  1  0  0  0  0
  7 10  1  0  0  0  0
 10 11  1  0  0  0  0
 10 12  1  0  0  0  0
 10 13  1  0  0  0  0
 13 14  1  0  0  0  0
 13 15  1  0  0  0  0
 13 16  1  0  0  0  0
 16 17  1  0  0  0  0
 16 18  1  0  0  0  0
 16 19  1  0  0  0  0
 19 20  1  0  0  0  0
 19 21  1  0  0  0  0
 19 22  1  0  0  0  0
M  END
> <VConfSearch Rank>
696

> <Conf_Id>
70

> <Delta U+W>
1.803

> <U+W>
-51.356

> <U>
10.428

> <W>
-61.784

> <W(PB)>
-64.014

> <W(SA)>
2.230

> <Valence>
8.445

> <Coulomb>
1.306

> <VdW>
0.676

> <VdW6>
-8.929

> <VdW12>
9.605

> <Bond>
0.209

> <Angle>
3.066

> <Pdih>
5.170

> <Idih>
0.001

> <Tether>
0.000

$$$$
VeraChem MOL file


 22 21  0  0  0  0  0  0  0  0999 V2000     
   18.2007   17.1994   24.7398 C   0  0  0  0  0  0  0  0  0  0  0  0
   18.5410   16.0613   24.4831 O   0  5  0  0  0  0  0  0  0  0  0  0
   17.0406   17.5524   24.8201 O   0  0  0  0  0  0  0  0  0  0  0  0
   19.2916   18.2356   24.9957 C   0  0  0  0  0  0  0  0  0  0  0  0
   20.0339   17.7744   25.6578 H   0  0  0  0  0  0  0  0  0  0  0  0
   18.8535   19.0763   25.5472 H   0  0  0  0  0  0  0  0  0  0  0  0
   19.9909   18.7446   23.7085 C   0  0  0  0  0  0  0  0  0  0  0  0
   20.8407   19.3800   23.9917 H   0  0  0  0  0  0  0  0  0  0  0  0
   20.4040   17.8847   23.1647 H   0  0  0  0  0  0  0  0  0  0  0  0
   19.0352   19.5474   22.7937 C   0  0  0  0  0  0  0  0  0  0  0  0
   18.5673   20.3485   23.3820 H   0  0  0  0  0  0  0  0  0  0  0  0
   18.2175   18.8998   22.4483 H   0  0  0  0  0  0  0  0  0  0  0  0
   19.7406   20.1826   21.5721 C   0  0  0  0  0  0  0  0  0  0  0  0
   19.0206   20.8290   21.0519 H   0  0  0  0  0  0  0  0  0  0  0  0
   20.5537   20.8368   21.9153 H   0  0  0  0  0  0  0  0  0  0  0  0
   20.2949   19.1430   20.5721 C   0  0  0  0  0  0  0  0  0  0  0  0
   19.4927   18.4557   20.2695 H   0  0  0  0  0  0  0  0  0  0  0  0
   21.0739   18.5353   21.0509 H   0  0  0  0  0  0  0  0  0  0  0  0
   20.8870   19.8219   19.3206 C   0  0  0  0  0  0  0  0  0  0  0  0
   20.1236   20.4090   18.7934 H   0  0  0  0  0  0  0  0  0  0  0  0
   21.2789   19.0711   18.6222 H   0  0  0  0  0  0  0  0  0  0  0  0
   21.7107   20.4951   19.5920 H   0  0  0  0  0  0  0  0  0  0  0  0
  1  2  1  0  0  0  0
  1  3  2  0  0  0  0
  1  4  1  0  0  0  0
  4  5  1  0  0  0  0
  4  6  1  0  0  0  0
  4  7  1  0  0  0  0
  7  8  1  0  0  0  0
  7  9  1  0  0  0  0
  7 10  1  0  0  0  0
 10 11  1  0  0  0  0
 10 12  1  0  0  0  0
 10 13  1  0  0  0  0
 13 14  1  0  0  0  0
 13 15  1  0  0  0  0
 13 16  1  0  0  0  0
 16 17  1  0  0  0  0
 16 18  1  0  0  0  0
 16 19  1  0  0  0  0
 19 20  1  0  0  0  0
 19 21  1  0  0  0  0
 19 22  1  0  0  0  0
M  END
> <VConfSearch Rank>
697

> <Conf_Id>
85

> <Delta U+W>
0.707

> <U+W>
-52.452

> <U>
8.925

> <W>
-61.378

> <W(PB)>
-63.661

> <W(SA)>
2.283

> <Valence>
7.881

> <Coulomb>
0.349

> <VdW>
0.695

> <VdW6>
-8.049

> <VdW12>
8.743

> <Bond>
0.156

> <Angle>
2.660

> <Pdih>
5.064

> <Idih>
0.001

> <Tether>
0.000

$$$$
VeraChem MOL file


 22 21  0  0  0  0  0  0  0  0999 V2000     
   22.0795   17.9885   24.7114 C   0  0  0  0  0  0  0  0  0  0  0  0
   22.4523   16.8389   24.5831 O   0  5  0  0  0  0  0  0  0  0  0  0
   22.8341   18.9231   24.8960 O   0  0  0  0  0  0  0  0  0  0  0  0
   20.5809   18.2729   24.6615 C   0  0  0  0  0  0  0  0  0  0  0  0
   20.3461   18.9359   25.5025 H   0  0  0  0  0  0  0  0  0  0  0  0
   20.0396   17.3351   24.8359 H   0  0  0  0  0  0  0  0  0  0  0  0
   20.1047   18.9279   23.3387 C   0  0  0  0  0  0  0  0  0  0  0  0
   19.0581   19.2335   23.4617 H   0  0  0  0  0  0  0  0  0  0  0  0
   20.6875   19.8406   23.1527 H   0  0  0  0  0  0  0  0  0  0  0  0
   20.2196   17.9739   22.1271 C   0  0  0  0  0  0  0  0  0  0  0  0
   19.5668   17.1045   22.2842 H   0  0  0  0  0  0  0  0  0  0  0  0
   21.2443   17.5818   22.0726 H   0  0  0  0  0  0  0  0  0  0  0  0
   19.8830   18.6316   20.7653 C   0  0  0  0  0  0  0  0  0  0  0  0
   20.5907   19.4451   20.5550 H   0  0  0  0  0  0  0  0  0  0  0  0
   20.0543   17.8784   19.9842 H   0  0  0  0  0  0  0  0  0  0  0  0
   18.4257   19.1401   20.6324 C   0  0  0  0  0  0  0  0  0  0  0  0
   17.7571   18.5543   21.2781 H   0  0  0  0  0  0  0  0  0  0  0  0
   18.0854   18.9652   19.6023 H   0  0  0  0  0  0  0  0  0  0  0  0
   18.2770   20.6480   20.9341 C   0  0  0  0  0  0  0  0  0  0  0  0
   18.5865   20.8925   21.9565 H   0  0  0  0  0  0  0  0  0  0  0  0
   17.2318   20.9618   20.8162 H   0  0  0  0  0  0  0  0  0  0  0  0
   18.8867   21.2457   20.2441 H   0  0  0  0  0  0  0  0  0  0  0  0
  1  2  1  0  0  0  0
  1  3  2  0  0  0  0
  1  4  1  0  0  0  0
  4  5  1  0  0  0  0
  4  6  1  0  0  0  0
  4  7  1  0  0  0  0
  7  8  1  0  0  0  0
  7  9  1  0  0  0  0
  7 10  1  0  0  0  0
 10 11  1  0  0  0  0
 10 12  1  0  0  0  0
 10 13  1  0  0  0  0
 13 14  1  0  0  0  0
 13 15  1  0  0  0  0
 13 16  1  0  0  0  0
 16 17  1  0  0  0  0
 16 18  1  0  0  0  0
 16 19  1  0  0  0  0
 19 20  1  0  0  0  0
 19 21  1  0  0  0  0
 19 22  1  0  0  0  0
M  END
> <VConfSearch Rank>
698

> <Conf_Id>
82

> <Delta U+W>
3.438

> <U+W>
-49.721

> <U>
11.773

> <W>
-61.495

> <W(PB)>
-63.749

> <W(SA)>
2.254

> <Valence>
10.419

> <Coulomb>
0.565

> <VdW>
0.789

> <VdW6>
-8.847

> <VdW12>
9.636

> <Bond>
0.200

> <Angle>
3.187

> <Pdih>
7.032

> <Idih>
0.001

> <Tether>
0.000

$$$$
VeraChem MOL file


 22 21  0  0  0  0  0  0  0  0999 V2000     
   22.9347   18.2447   23.6642 C   0  0  0  0  0  0  0  0  0  0  0  0
   22.7800   17.7407   24.7591 O   0  5  0  0  0  0  0  0  0  0  0  0
   23.7116   17.8192   22.8321 O   0  0  0  0  0  0  0  0  0  0  0  0
   22.1253   19.4938   23.3263 C   0  0  0  0  0  0  0  0  0  0  0  0
   22.6092   20.0095   22.4880 H   0  0  0  0  0  0  0  0  0  0  0  0
   22.1862   20.1660   24.1903 H   0  0  0  0  0  0  0  0  0  0  0  0
   20.6365   19.2126   22.9944 C   0  0  0  0  0  0  0  0  0  0  0  0
   20.1770   18.6547   23.8220 H   0  0  0  0  0  0  0  0  0  0  0  0
   20.1112   20.1733   22.9227 H   0  0  0  0  0  0  0  0  0  0  0  0
   20.4588   18.4328   21.6711 C   0  0  0  0  0  0  0  0  0  0  0  0
   21.0753   17.5240   21.7022 H   0  0  0  0  0  0  0  0  0  0  0  0
   20.8440   19.0359   20.8377 H   0  0  0  0  0  0  0  0  0  0  0  0
   18.9979   18.0130   21.3712 C   0  0  0  0  0  0  0  0  0  0  0  0
   19.0080   17.4230   20.4445 H   0  0  0  0  0  0  0  0  0  0  0  0
   18.6335   17.3329   22.1533 H   0  0  0  0  0  0  0  0  0  0  0  0
   18.0098   19.1909   21.1811 C   0  0  0  0  0  0  0  0  0  0  0  0
   17.2884   18.9211   20.3976 H   0  0  0  0  0  0  0  0  0  0  0  0
   18.5418   20.0792   20.8132 H   0  0  0  0  0  0  0  0  0  0  0  0
   17.2168   19.5332   22.4621 C   0  0  0  0  0  0  0  0  0  0  0  0
   16.6240   18.6716   22.7957 H   0  0  0  0  0  0  0  0  0  0  0  0
   16.5245   20.3642   22.2744 H   0  0  0  0  0  0  0  0  0  0  0  0
   17.8775   19.8276   23.2853 H   0  0  0  0  0  0  0  0  0  0  0  0
  1  2  1  0  0  0  0
  1  3  2  0  0  0  0
  1  4  1  0  0  0  0
  4  5  1  0  0  0  0
  4  6  1  0  0  0  0
  4  7  1  0  0  0  0
  7  8  1  0  0  0  0
  7  9  1  0  0  0  0
  7 10  1  0  0  0  0
 10 11  1  0  0  0  0
 10 12  1  0  0  0  0
 10 13  1  0  0  0  0
 13 14  1  0  0  0  0
 13 15  1  0  0  0  0
 13 16  1  0  0  0  0
 16 17  1  0  0  0  0
 16 18  1  0  0  0  0
 16 19  1  0  0  0  0
 19 20  1  0  0  0  0
 19 21  1  0  0  0  0
 19 22  1  0  0  0  0
M  END
> <VConfSearch Rank>
699

> <Conf_Id>
94

> <Delta U+W>
3.471

> <U+W>
-49.688

> <U>
11.773

> <W>
-61.461

> <W(PB)>
-63.710

> <W(SA)>
2.248

> <Valence>
10.419

> <Coulomb>
0.566

> <VdW>
0.789

> <VdW6>
-8.847

> <VdW12>
9.636

> <Bond>
0.200

> <Angle>
3.187

> <Pdih>
7.032

> <Idih>
0.001

> <Tether>
0.000

$$$$
VeraChem MOL file


 22 21  0  0  0  0  0  0  0  0999 V2000     
   17.4280   21.3376   21.8680 C   0  0  0  0  0  0  0  0  0  0  0  0
   17.0775   22.3092   22.5081 O   0  5  0  0  0  0  0  0  0  0  0  0
   16.6791   20.6912   21.1623 O   0  0  0  0  0  0  0  0  0  0  0  0
   18.8828   20.8942   21.9712 C   0  0  0  0  0  0  0  0  0  0  0  0
   19.5020   21.7871   22.1182 H   0  0  0  0  0  0  0  0  0  0  0  0
   19.1671   20.4554   21.0081 H   0  0  0  0  0  0  0  0  0  0  0  0
   19.1216   19.8823   23.1217 C   0  0  0  0  0  0  0  0  0  0  0  0
   18.7513   20.3197   24.0590 H   0  0  0  0  0  0  0  0  0  0  0  0
   18.5196   18.9804   22.9488 H   0  0  0  0  0  0  0  0  0  0  0  0
   20.6113   19.5003   23.3096 C   0  0  0  0  0  0  0  0  0  0  0  0
   20.6990   18.8262   24.1718 H   0  0  0  0  0  0  0  0  0  0  0  0
   21.1772   20.4023   23.5791 H   0  0  0  0  0  0  0  0  0  0  0  0
   21.2854   18.8437   22.0760 C   0  0  0  0  0  0  0  0  0  0  0  0
   21.3447   19.5768   21.2610 H   0  0  0  0  0  0  0  0  0  0  0  0
   22.3255   18.6018   22.3332 H   0  0  0  0  0  0  0  0  0  0  0  0
   20.5916   17.5632   21.5496 C   0  0  0  0  0  0  0  0  0  0  0  0
   21.1385   17.2066   20.6661 H   0  0  0  0  0  0  0  0  0  0  0  0
   19.5761   17.7982   21.2040 H   0  0  0  0  0  0  0  0  0  0  0  0
   20.5374   16.4263   22.5928 C   0  0  0  0  0  0  0  0  0  0  0  0
   21.5419   16.1861   22.9645 H   0  0  0  0  0  0  0  0  0  0  0  0
   20.1141   15.5165   22.1480 H   0  0  0  0  0  0  0  0  0  0  0  0
   19.9094   16.7012   23.4495 H   0  0  0  0  0  0  0  0  0  0  0  0
  1  2  1  0  0  0  0
  1  3  2  0  0  0  0
  1  4  1  0  0  0  0
  4  5  1  0  0  0  0
  4  6  1  0  0  0  0
  4  7  1  0  0  0  0
  7  8  1  0  0  0  0
  7  9  1  0  0  0  0
  7 10  1  0  0  0  0
 10 11  1  0  0  0  0
 10 12  1  0  0  0  0
 10 13  1  0  0  0  0
 13 14  1  0  0  0  0
 13 15  1  0  0  0  0
 13 16  1  0  0  0  0
 16 17  1  0  0  0  0
 16 18  1  0  0  0  0
 16 19  1  0  0  0  0
 19 20  1  0  0  0  0
 19 21  1  0  0  0  0
 19 22  1  0  0  0  0
M  END
> <VConfSearch Rank>
700

> <Conf_Id>
56

> <Delta U+W>
0.853

> <U+W>
-52.307

> <U>
8.874

> <W>
-61.181

> <W(PB)>
-63.413

> <W(SA)>
2.232

> <Valence>
8.479

> <Coulomb>
-0.357

> <VdW>
0.753

> <VdW6>
-9.081

> <VdW12>
9.833

> <Bond>
0.221

> <Angle>
3.208

> <Pdih>
5.050

> <Idih>
0.000

> <Tether>
0.000

$$$$
VeraChem MOL file


 22 21  0  0  0  0  0  0  0  0999 V2000     
   19.4474   18.0699   18.2181 C   0  0  0  0  0  0  0  0  0  0  0  0
   20.4600   18.6732   17.9199 O   0  5  0  0  0  0  0  0  0  0  0  0
   18.7548   17.4929   17.4037 O   0  0  0  0  0  0  0  0  0  0  0  0
   18.9979   18.0170   19.6792 C   0  0  0  0  0  0  0  0  0  0  0  0
   18.9274   16.9600   19.9615 H   0  0  0  0  0  0  0  0  0  0  0  0
   17.9831   18.4296   19.7242 H   0  0  0  0  0  0  0  0  0  0  0  0
   19.9142   18.7676   20.6819 C   0  0  0  0  0  0  0  0  0  0  0  0
   20.9306   18.3535   20.6272 H   0  0  0  0  0  0  0  0  0  0  0  0
   19.9853   19.8245   20.3898 H   0  0  0  0  0  0  0  0  0  0  0  0
   19.3879   18.6631   22.1299 C   0  0  0  0  0  0  0  0  0  0  0  0
   19.3176   17.6056   22.4196 H   0  0  0  0  0  0  0  0  0  0  0  0
   18.3717   19.0775   22.1820 H   0  0  0  0  0  0  0  0  0  0  0  0
   20.3007   19.4104   23.1256 C   0  0  0  0  0  0  0  0  0  0  0  0
   21.3171   18.9964   23.0737 H   0  0  0  0  0  0  0  0  0  0  0  0
   20.3713   20.4680   22.8363 H   0  0  0  0  0  0  0  0  0  0  0  0
   19.7755   19.3063   24.5728 C   0  0  0  0  0  0  0  0  0  0  0  0
   19.7055   18.2498   24.8665 H   0  0  0  0  0  0  0  0  0  0  0  0
   18.7595   19.7214   24.6290 H   0  0  0  0  0  0  0  0  0  0  0  0
   20.6897   20.0540   25.5640 C   0  0  0  0  0  0  0  0  0  0  0  0
   21.7058   19.6381   25.5514 H   0  0  0  0  0  0  0  0  0  0  0  0
   20.3017   19.9696   26.5874 H   0  0  0  0  0  0  0  0  0  0  0  0
   20.7527   21.1208   25.3122 H   0  0  0  0  0  0  0  0  0  0  0  0
  1  2  1  0  0  0  0
  1  3  2  0  0  0  0
  1  4  1  0  0  0  0
  4  5  1  0  0  0  0
  4  6  1  0  0  0  0
  4  7  1  0  0  0  0
  7  8  1  0  0  0  0
  7  9  1  0  0  0  0
  7 10  1  0  0  0  0
 10 11  1  0  0  0  0
 10 12  1  0  0  0  0
 10 13  1  0  0  0  0
 13 14  1  0  0  0  0
 13 15  1  0  0  0  0
 13 16  1  0  0  0  0
 16 17  1  0  0  0  0
 16 18  1  0  0  0  0
 16 19  1  0  0  0  0
 19 20  1  0  0  0  0
 19 21  1  0  0  0  0
 19 22  1  0  0  0  0
M  END
> <VConfSearch Rank>
701

> <Conf_Id>
0

> <Delta U+W>
0.000

> <U+W>
-53.159

> <U>
6.763

> <W>
-59.922

> <W(PB)>
-62.256

> <W(SA)>
2.334

> <Valence>
7.600

> <Coulomb>
-2.139

> <VdW>
1.302

> <VdW6>
-6.786

> <VdW12>
8.088

> <Bond>
0.134

> <Angle>
2.720

> <Pdih>
4.746

> <Idih>
0.000

> <Tether>
0.000

$$$$
VeraChem MOL file


 22 21  0  0  0  0  0  0  0  0999 V2000     
   17.3186   16.7024   19.9649 C   0  0  0  0  0  0  0  0  0  0  0  0
   16.1385   16.9252   20.1498 O   0  5  0  0  0  0  0  0  0  0  0  0
   17.7611   15.6052   19.6879 O   0  0  0  0  0  0  0  0  0  0  0  0
   18.3010   17.8591   20.1106 C   0  0  0  0  0  0  0  0  0  0  0  0
   17.7938   18.7787   19.7948 H   0  0  0  0  0  0  0  0  0  0  0  0
   19.1310   17.6910   19.4138 H   0  0  0  0  0  0  0  0  0  0  0  0
   18.8384   18.0139   21.5547 C   0  0  0  0  0  0  0  0  0  0  0  0
   17.9944   18.1683   22.2413 H   0  0  0  0  0  0  0  0  0  0  0  0
   19.3316   17.0806   21.8603 H   0  0  0  0  0  0  0  0  0  0  0  0
   19.8303   19.1908   21.6758 C   0  0  0  0  0  0  0  0  0  0  0  0
   19.3345   20.1219   21.3684 H   0  0  0  0  0  0  0  0  0  0  0  0
   20.6720   19.0340   20.9873 H   0  0  0  0  0  0  0  0  0  0  0  0
   20.3643   19.3426   23.1164 C   0  0  0  0  0  0  0  0  0  0  0  0
   19.5229   19.4995   23.8052 H   0  0  0  0  0  0  0  0  0  0  0  0
   20.8601   18.4118   23.4241 H   0  0  0  0  0  0  0  0  0  0  0  0
   21.3557   20.5188   23.2383 C   0  0  0  0  0  0  0  0  0  0  0  0
   20.8627   21.4522   22.9331 H   0  0  0  0  0  0  0  0  0  0  0  0
   22.1999   20.3644   22.5520 H   0  0  0  0  0  0  0  0  0  0  0  0
   21.8867   20.6670   24.6782 C   0  0  0  0  0  0  0  0  0  0  0  0
   22.4127   19.7581   24.9984 H   0  0  0  0  0  0  0  0  0  0  0  0
   21.0653   20.8539   25.3824 H   0  0  0  0  0  0  0  0  0  0  0  0
   22.5896   21.5074   24.7468 H   0  0  0  0  0  0  0  0  0  0  0  0
  1  2  1  0  0  0  0
  1  3  2  0  0  0  0
  1  4  1  0  0  0  0
  4  5  1  0  0  0  0
  4  6  1  0  0  0  0
  4  7  1  0  0  0  0
  7  8  1  0  0  0  0
  7  9  1  0  0  0  0
  7 10  1  0  0  0  0
 10 11  1  0  0  0  0
 10 12  1  0  0  0  0
 10 13  1  0  0  0  0
 13 14  1  0  0  0  0
 13 15  1  0  0  0  0
 13 16  1  0  0  0  0
 16 17  1  0  0  0  0
 16 18  1  0  0  0  0
 16 19  1  0  0  0  0
 19 20  1  0  0  0  0
 19 21  1  0  0  0  0
 19 22  1  0  0  0  0
M  END
> <VConfSearch Rank>
702

> <Conf_Id>
10

> <Delta U+W>
-1.291

> <U+W>
-54.451

> <U>
5.779

> <W>
-60.230

> <W(PB)>
-62.557

> <W(SA)>
2.328

> <Valence>
7.101

> <Coulomb>
-2.079

> <VdW>
0.757

> <VdW6>
-6.496

> <VdW12>
7.253

> <Bond>
0.100

> <Angle>
2.262

> <Pdih>
4.738

> <Idih>
0.001

> <Tether>
0.000

$$$$
VeraChem MOL file


 22 21  0  0  0  0  0  0  0  0999 V2000     
   18.0908   21.4018   24.6346 C   0  0  0  0  0  0  0  0  0  0  0  0
   17.6444   20.8492   25.6204 O   0  5  0  0  0  0  0  0  0  0  0  0
   18.4205   22.5710   24.6097 O   0  0  0  0  0  0  0  0  0  0  0  0
   18.2666   20.5770   23.3645 C   0  0  0  0  0  0  0  0  0  0  0  0
   18.1120   21.2391   22.5041 H   0  0  0  0  0  0  0  0  0  0  0  0
   17.4737   19.8198   23.3375 H   0  0  0  0  0  0  0  0  0  0  0  0
   19.6561   19.8993   23.2745 C   0  0  0  0  0  0  0  0  0  0  0  0
   20.4386   20.6697   23.3164 H   0  0  0  0  0  0  0  0  0  0  0  0
   19.8005   19.2498   24.1490 H   0  0  0  0  0  0  0  0  0  0  0  0
   19.8089   19.0707   21.9805 C   0  0  0  0  0  0  0  0  0  0  0  0
   19.6661   19.7229   21.1081 H   0  0  0  0  0  0  0  0  0  0  0  0
   19.0186   18.3095   21.9454 H   0  0  0  0  0  0  0  0  0  0  0  0
   21.1961   18.3933   21.8972 C   0  0  0  0  0  0  0  0  0  0  0  0
   21.9754   19.1602   22.0047 H   0  0  0  0  0  0  0  0  0  0  0  0
   21.3217   17.7016   22.7414 H   0  0  0  0  0  0  0  0  0  0  0  0
   21.4321   17.6367   20.5694 C   0  0  0  0  0  0  0  0  0  0  0  0
   22.4740   17.2889   20.5423 H   0  0  0  0  0  0  0  0  0  0  0  0
   21.3135   18.3270   19.7227 H   0  0  0  0  0  0  0  0  0  0  0  0
   20.4977   16.4216   20.3837 C   0  0  0  0  0  0  0  0  0  0  0  0
   20.7635   15.8686   19.4735 H   0  0  0  0  0  0  0  0  0  0  0  0
   19.4498   16.7326   20.2888 H   0  0  0  0  0  0  0  0  0  0  0  0
   20.5770   15.7314   21.2337 H   0  0  0  0  0  0  0  0  0  0  0  0
  1  2  1  0  0  0  0
  1  3  2  0  0  0  0
  1  4  1  0  0  0  0
  4  5  1  0  0  0  0
  4  6  1  0  0  0  0
  4  7  1  0  0  0  0
  7  8  1  0  0  0  0
  7  9  1  0  0  0  0
  7 10  1  0  0  0  0
 10 11  1  0  0  0  0
 10 12  1  0  0  0  0
 10 13  1  0  0  0  0
 13 14  1  0  0  0  0
 13 15  1  0  0  0  0
 13 16  1  0  0  0  0
 16 17  1  0  0  0  0
 16 18  1  0  0  0  0
 16 19  1  0  0  0  0
 19 20  1  0  0  0  0
 19 21  1  0  0  0  0
 19 22  1  0  0  0  0
M  END
> <VConfSearch Rank>
703

> <Conf_Id>
37

> <Delta U+W>
-0.345

> <U+W>
-53.504

> <U>
6.751

> <W>
-60.255

> <W(PB)>
-62.592

> <W(SA)>
2.336

> <Valence>
7.602

> <Coulomb>
-1.744

> <VdW>
0.894

> <VdW6>
-7.110

> <VdW12>
8.004

> <Bond>
0.131

> <Angle>
2.489

> <Pdih>
4.982

> <Idih>
0.001

> <Tether>
0.000

$$$$
VeraChem MOL file


 22 21  0  0  0  0  0  0  0  0999 V2000     
   20.3169   19.5979   26.0204 C   0  0  0  0  0  0  0  0  0  0  0  0
   19.6364   20.5086   26.4495 O   0  5  0  0  0  0  0  0  0  0  0  0
   21.3725   19.2556   26.5153 O   0  0  0  0  0  0  0  0  0  0  0  0
   19.8299   18.8580   24.7796 C   0  0  0  0  0  0  0  0  0  0  0  0
   18.7334   18.8490   24.7966 H   0  0  0  0  0  0  0  0  0  0  0  0
   20.1638   17.8159   24.8512 H   0  0  0  0  0  0  0  0  0  0  0  0
   20.3388   19.4928   23.4619 C   0  0  0  0  0  0  0  0  0  0  0  0
   20.0067   20.5391   23.4111 H   0  0  0  0  0  0  0  0  0  0  0  0
   21.4375   19.5066   23.4668 H   0  0  0  0  0  0  0  0  0  0  0  0
   19.8324   18.7257   22.2212 C   0  0  0  0  0  0  0  0  0  0  0  0
   18.7347   18.7118   22.2301 H   0  0  0  0  0  0  0  0  0  0  0  0
   20.1676   17.6809   22.2735 H   0  0  0  0  0  0  0  0  0  0  0  0
   20.3399   19.3656   20.9084 C   0  0  0  0  0  0  0  0  0  0  0  0
   19.9638   20.3948   20.8286 H   0  0  0  0  0  0  0  0  0  0  0  0
   21.4355   19.4367   20.9457 H   0  0  0  0  0  0  0  0  0  0  0  0
   19.9424   18.5704   19.6431 C   0  0  0  0  0  0  0  0  0  0  0  0
   20.3225   17.5420   19.7164 H   0  0  0  0  0  0  0  0  0  0  0  0
   20.4375   19.0227   18.7727 H   0  0  0  0  0  0  0  0  0  0  0  0
   18.4194   18.5446   19.3905 C   0  0  0  0  0  0  0  0  0  0  0  0
   18.0116   19.5627   19.3434 H   0  0  0  0  0  0  0  0  0  0  0  0
   17.8911   17.9979   20.1817 H   0  0  0  0  0  0  0  0  0  0  0  0
   18.1968   18.0469   18.4378 H   0  0  0  0  0  0  0  0  0  0  0  0
  1  2  1  0  0  0  0
  1  3  2  0  0  0  0
  1  4  1  0  0  0  0
  4  5  1  0  0  0  0
  4  6  1  0  0  0  0
  4  7  1  0  0  0  0
  7  8  1  0  0  0  0
  7  9  1  0  0  0  0
  7 10  1  0  0  0  0
 10 11  1  0  0  0  0
 10 12  1  0  0  0  0
 10 13  1  0  0  0  0
 13 14  1  0  0  0  0
 13 15  1  0  0  0  0
 13 16  1  0  0  0  0
 16 17  1  0  0  0  0
 16 18  1  0  0  0  0
 16 19  1  0  0  0  0
 19 20  1  0  0  0  0
 19 21  1  0  0  0  0
 19 22  1  0  0  0  0
M  END
> <VConfSearch Rank>
704

> <Conf_Id>
38

> <Delta U+W>
-0.439

> <U+W>
-53.598

> <U>
6.751

> <W>
-60.350

> <W(PB)>
-62.659

> <W(SA)>
2.309

> <Valence>
7.602

> <Coulomb>
-1.744

> <VdW>
0.893

> <VdW6>
-7.110

> <VdW12>
8.004

> <Bond>
0.131

> <Angle>
2.489

> <Pdih>
4.981

> <Idih>
0.001

> <Tether>
0.000

$$$$
VeraChem MOL file


 22 21  0  0  0  0  0  0  0  0999 V2000     
   21.7459   21.7802   23.9715 C   0  0  0  0  0  0  0  0  0  0  0  0
   21.7005   21.9721   25.1705 O   0  5  0  0  0  0  0  0  0  0  0  0
   22.0817   22.6267   23.1670 O   0  0  0  0  0  0  0  0  0  0  0  0
   21.3372   20.4087   23.4459 C   0  0  0  0  0  0  0  0  0  0  0  0
   21.6052   19.6611   24.2020 H   0  0  0  0  0  0  0  0  0  0  0  0
   21.9399   20.2011   22.5548 H   0  0  0  0  0  0  0  0  0  0  0  0
   19.8240   20.3190   23.1176 C   0  0  0  0  0  0  0  0  0  0  0  0
   19.2536   20.6278   24.0047 H   0  0  0  0  0  0  0  0  0  0  0  0
   19.5765   21.0382   22.3246 H   0  0  0  0  0  0  0  0  0  0  0  0
   19.3616   18.9020   22.7018 C   0  0  0  0  0  0  0  0  0  0  0  0
   18.2665   18.9095   22.6311 H   0  0  0  0  0  0  0  0  0  0  0  0
   19.6180   18.1843   23.4929 H   0  0  0  0  0  0  0  0  0  0  0  0
   19.9605   18.4302   21.3539 C   0  0  0  0  0  0  0  0  0  0  0  0
   19.7056   19.1489   20.5632 H   0  0  0  0  0  0  0  0  0  0  0  0
   21.0555   18.4193   21.4241 H   0  0  0  0  0  0  0  0  0  0  0  0
   19.4947   17.0157   20.9365 C   0  0  0  0  0  0  0  0  0  0  0  0
   19.7377   16.2955   21.7300 H   0  0  0  0  0  0  0  0  0  0  0  0
   20.0657   16.7050   20.0507 H   0  0  0  0  0  0  0  0  0  0  0  0
   17.9883   16.9376   20.6061 C   0  0  0  0  0  0  0  0  0  0  0  0
   17.3719   17.1213   21.4947 H   0  0  0  0  0  0  0  0  0  0  0  0
   17.7307   15.9410   20.2246 H   0  0  0  0  0  0  0  0  0  0  0  0
   17.7156   17.6737   19.8387 H   0  0  0  0  0  0  0  0  0  0  0  0
  1  2  1  0  0  0  0
  1  3  2  0  0  0  0
  1  4  1  0  0  0  0
  4  5  1  0  0  0  0
  4  6  1  0  0  0  0
  4  7  1  0  0  0  0
  7  8  1  0  0  0  0
  7  9  1  0  0  0  0
  7 10  1  0  0  0  0
 10 11  1  0  0  0  0
 10 12  1  0  0  0  0
 10 13  1  0  0  0  0
 13 14  1  0  0  0  0
 13 15  1  0  0  0  0
 13 16  1  0  0  0  0
 16 17  1  0  0  0  0
 16 18  1  0  0  0  0
 16 19  1  0  0  0  0
 19 20  1  0  0  0  0
 19 21  1  0  0  0  0
 19 22  1  0  0  0  0
M  END
> <VConfSearch Rank>
705

> <Conf_Id>
60

> <Delta U+W>
0.386

> <U+W>
-52.773

> <U>
7.689

> <W>
-60.463

> <W(PB)>
-62.772

> <W(SA)>
2.309

> <Valence>
8.197

> <Coulomb>
-1.561

> <VdW>
1.053

> <VdW6>
-7.737

> <VdW12>
8.790

> <Bond>
0.181

> <Angle>
2.780

> <Pdih>
5.235

> <Idih>
0.001

> <Tether>
0.000

$$$$
VeraChem MOL file


 22 21  0  0  0  0  0  0  0  0999 V2000     
   20.6018   15.4372   21.0476 C   0  0  0  0  0  0  0  0  0  0  0  0
   21.0536   14.7768   21.9621 O   0  5  0  0  0  0  0  0  0  0  0  0
   20.7180   15.1332   19.8768 O   0  0  0  0  0  0  0  0  0  0  0  0
   19.8683   16.7301   21.3864 C   0  0  0  0  0  0  0  0  0  0  0  0
   19.3578   16.5814   22.3443 H   0  0  0  0  0  0  0  0  0  0  0  0
   19.0945   16.8912   20.6262 H   0  0  0  0  0  0  0  0  0  0  0  0
   20.8153   17.9565   21.4541 C   0  0  0  0  0  0  0  0  0  0  0  0
   21.5559   17.8055   22.2516 H   0  0  0  0  0  0  0  0  0  0  0  0
   21.3806   18.0157   20.5137 H   0  0  0  0  0  0  0  0  0  0  0  0
   20.0778   19.2993   21.6724 C   0  0  0  0  0  0  0  0  0  0  0  0
   19.3326   19.4432   20.8782 H   0  0  0  0  0  0  0  0  0  0  0  0
   20.8095   20.1099   21.5634 H   0  0  0  0  0  0  0  0  0  0  0  0
   19.3933   19.4074   23.0572 C   0  0  0  0  0  0  0  0  0  0  0  0
   18.6591   18.5992   23.1663 H   0  0  0  0  0  0  0  0  0  0  0  0
   20.1382   19.2616   23.8513 H   0  0  0  0  0  0  0  0  0  0  0  0
   18.6602   20.7514   23.2767 C   0  0  0  0  0  0  0  0  0  0  0  0
   18.0927   20.6927   24.2157 H   0  0  0  0  0  0  0  0  0  0  0  0
   17.9220   20.9064   22.4777 H   0  0  0  0  0  0  0  0  0  0  0  0
   19.6116   21.9655   23.3490 C   0  0  0  0  0  0  0  0  0  0  0  0
   20.3802   21.8172   24.1187 H   0  0  0  0  0  0  0  0  0  0  0  0
   19.0527   22.8760   23.6011 H   0  0  0  0  0  0  0  0  0  0  0  0
   20.1137   22.1404   22.3894 H   0  0  0  0  0  0  0  0  0  0  0  0
  1  2  1  0  0  0  0
  1  3  2  0  0  0  0
  1  4  1  0  0  0  0
  4  5  1  0  0  0  0
  4  6  1  0  0  0  0
  4  7  1  0  0  0  0
  7  8  1  0  0  0  0
  7  9  1  0  0  0  0
  7 10  1  0  0  0  0
 10 11  1  0  0  0  0
 10 12  1  0  0  0  0
 10 13  1  0  0  0  0
 13 14  1  0  0  0  0
 13 15  1  0  0  0  0
 13 16  1  0  0  0  0
 16 17  1  0  0  0  0
 16 18  1  0  0  0  0
 16 19  1  0  0  0  0
 19 20  1  0  0  0  0
 19 21  1  0  0  0  0
 19 22  1  0  0  0  0
M  END
> <VConfSearch Rank>
706

> <Conf_Id>
28

> <Delta U+W>
0.351

> <U+W>
-52.808

> <U>
7.689

> <W>
-60.498

> <W(PB)>
-62.768

> <W(SA)>
2.270

> <Valence>
8.197

> <Coulomb>
-1.561

> <VdW>
1.053

> <VdW6>
-7.737

> <VdW12>
8.791

> <Bond>
0.181

> <Angle>
2.780

> <Pdih>
5.235

> <Idih>
0.001

> <Tether>
0.000

$$$$
VeraChem MOL file


 22 21  0  0  0  0  0  0  0  0999 V2000     
   17.1350   20.1672   20.1159 C   0  0  0  0  0  0  0  0  0  0  0  0
   16.2816   20.8381   20.6617 O   0  5  0  0  0  0  0  0  0  0  0  0
   17.6063   20.4327   19.0279 O   0  0  0  0  0  0  0  0  0  0  0  0
   17.6578   18.9348   20.8456 C   0  0  0  0  0  0  0  0  0  0  0  0
   17.9295   18.1836   20.0943 H   0  0  0  0  0  0  0  0  0  0  0  0
   16.8363   18.5170   21.4398 H   0  0  0  0  0  0  0  0  0  0  0  0
   18.8726   19.2443   21.7549 C   0  0  0  0  0  0  0  0  0  0  0  0
   19.6726   19.6795   21.1416 H   0  0  0  0  0  0  0  0  0  0  0  0
   18.5870   20.0041   22.4955 H   0  0  0  0  0  0  0  0  0  0  0  0
   19.3848   17.9773   22.4782 C   0  0  0  0  0  0  0  0  0  0  0  0
   19.7197   17.2376   21.7382 H   0  0  0  0  0  0  0  0  0  0  0  0
   18.5501   17.5156   23.0234 H   0  0  0  0  0  0  0  0  0  0  0  0
   20.5280   18.2601   23.4815 C   0  0  0  0  0  0  0  0  0  0  0  0
   20.1921   18.9966   24.2242 H   0  0  0  0  0  0  0  0  0  0  0  0
   20.7413   17.3357   24.0356 H   0  0  0  0  0  0  0  0  0  0  0  0
   21.8296   18.7535   22.8101 C   0  0  0  0  0  0  0  0  0  0  0  0
   21.6579   19.7183   22.3150 H   0  0  0  0  0  0  0  0  0  0  0  0
   22.1370   18.0429   22.0306 H   0  0  0  0  0  0  0  0  0  0  0  0
   22.9696   18.9128   23.8361 C   0  0  0  0  0  0  0  0  0  0  0  0
   23.1955   17.9560   24.3248 H   0  0  0  0  0  0  0  0  0  0  0  0
   22.6993   19.6396   24.6133 H   0  0  0  0  0  0  0  0  0  0  0  0
   23.8853   19.2666   23.3449 H   0  0  0  0  0  0  0  0  0  0  0  0
  1  2  1  0  0  0  0
  1  3  2  0  0  0  0
  1  4  1  0  0  0  0
  4  5  1  0  0  0  0
  4  6  1  0  0  0  0
  4  7  1  0  0  0  0
  7  8  1  0  0  0  0
  7  9  1  0  0  0  0
  7 10  1  0  0  0  0
 10 11  1  0  0  0  0
 10 12  1  0  0  0  0
 10 13  1  0  0  0  0
 13 14  1  0  0  0  0
 13 15  1  0  0  0  0
 13 16  1  0  0  0  0
 16 17  1  0  0  0  0
 16 18  1  0  0  0  0
 16 19  1  0  0  0  0
 19 20  1  0  0  0  0
 19 21  1  0  0  0  0
 19 22  1  0  0  0  0
M  END
> <VConfSearch Rank>
707

> <Conf_Id>
50

> <Delta U+W>
-0.486

> <U+W>
-53.646

> <U>
7.026

> <W>
-60.672

> <W(PB)>
-62.964

> <W(SA)>
2.292

> <Valence>
7.637

> <Coulomb>
-1.488

> <VdW>
0.877

> <VdW6>
-7.165

> <VdW12>
8.043

> <Bond>
0.134

> <Angle>
2.513

> <Pdih>
4.990

> <Idih>
0.001

> <Tether>
0.000

$$$$
VeraChem MOL file


 22 21  0  0  0  0  0  0  0  0999 V2000     
   18.0803   19.6204   25.5521 C   0  0  0  0  0  0  0  0  0  0  0  0
   17.9796   20.7762   25.9134 O   0  5  0  0  0  0  0  0  0  0  0  0
   18.3927   18.7087   26.2921 O   0  0  0  0  0  0  0  0  0  0  0  0
   17.8201   19.2997   24.0845 C   0  0  0  0  0  0  0  0  0  0  0  0
   17.0552   19.9932   23.7149 H   0  0  0  0  0  0  0  0  0  0  0  0
   17.3975   18.2895   24.0262 H   0  0  0  0  0  0  0  0  0  0  0  0
   19.0962   19.3958   23.2123 C   0  0  0  0  0  0  0  0  0  0  0  0
   19.5120   20.4100   23.2885 H   0  0  0  0  0  0  0  0  0  0  0  0
   19.8524   18.7085   23.6136 H   0  0  0  0  0  0  0  0  0  0  0  0
   18.8045   19.0615   21.7310 C   0  0  0  0  0  0  0  0  0  0  0  0
   17.9925   19.7088   21.3723 H   0  0  0  0  0  0  0  0  0  0  0  0
   18.4383   18.0290   21.6490 H   0  0  0  0  0  0  0  0  0  0  0  0
   20.0282   19.2519   20.8037 C   0  0  0  0  0  0  0  0  0  0  0  0
   19.7011   19.1164   19.7637 H   0  0  0  0  0  0  0  0  0  0  0  0
   20.3924   20.2855   20.8824 H   0  0  0  0  0  0  0  0  0  0  0  0
   21.1836   18.2687   21.0979 C   0  0  0  0  0  0  0  0  0  0  0  0
   20.8079   17.2366   21.0713 H   0  0  0  0  0  0  0  0  0  0  0  0
   21.5788   18.4402   22.1078 H   0  0  0  0  0  0  0  0  0  0  0  0
   22.3302   18.4226   20.0784 C   0  0  0  0  0  0  0  0  0  0  0  0
   22.7435   19.4394   20.1032 H   0  0  0  0  0  0  0  0  0  0  0  0
   21.9792   18.2197   19.0581 H   0  0  0  0  0  0  0  0  0  0  0  0
   23.1438   17.7204   20.3025 H   0  0  0  0  0  0  0  0  0  0  0  0
  1  2  1  0  0  0  0
  1  3  2  0  0  0  0
  1  4  1  0  0  0  0
  4  5  1  0  0  0  0
  4  6  1  0  0  0  0
  4  7  1  0  0  0  0
  7  8  1  0  0  0  0
  7  9  1  0  0  0  0
  7 10  1  0  0  0  0
 10 11  1  0  0  0  0
 10 12  1  0  0  0  0
 10 13  1  0  0  0  0
 13 14  1  0  0  0  0
 13 15  1  0  0  0  0
 13 16  1  0  0  0  0
 16 17  1  0  0  0  0
 16 18  1  0  0  0  0
 16 19  1  0  0  0  0
 19 20  1  0  0  0  0
 19 21  1  0  0  0  0
 19 22  1  0  0  0  0
M  END
> <VConfSearch Rank>
708

> <Conf_Id>
51

> <Delta U+W>
-0.517

> <U+W>
-53.677

> <U>
7.026

> <W>
-60.703

> <W(PB)>
-63.007

> <W(SA)>
2.304

> <Valence>
7.638

> <Coulomb>
-1.488

> <VdW>
0.877

> <VdW6>
-7.165

> <VdW12>
8.042

> <Bond>
0.134

> <Angle>
2.513

> <Pdih>
4.990

> <Idih>
0.001

> <Tether>
0.000

$$$$
VeraChem MOL file


 22 21  0  0  0  0  0  0  0  0999 V2000     
   21.5487   19.0011   25.4448 C   0  0  0  0  0  0  0  0  0  0  0  0
   22.7603   18.9471   25.3668 O   0  5  0  0  0  0  0  0  0  0  0  0
   20.9465   19.9477   25.9118 O   0  0  0  0  0  0  0  0  0  0  0  0
   20.7422   17.8054   24.9457 C   0  0  0  0  0  0  0  0  0  0  0  0
   19.7389   17.8513   25.3864 H   0  0  0  0  0  0  0  0  0  0  0  0
   21.2203   16.9004   25.3386 H   0  0  0  0  0  0  0  0  0  0  0  0
   20.6448   17.7109   23.4009 C   0  0  0  0  0  0  0  0  0  0  0  0
   21.6567   17.6942   22.9728 H   0  0  0  0  0  0  0  0  0  0  0  0
   20.1717   16.7569   23.1313 H   0  0  0  0  0  0  0  0  0  0  0  0
   19.8347   18.8733   22.7843 C   0  0  0  0  0  0  0  0  0  0  0  0
   20.3116   19.8308   23.0353 H   0  0  0  0  0  0  0  0  0  0  0  0
   18.8285   18.8936   23.2250 H   0  0  0  0  0  0  0  0  0  0  0  0
   19.7239   18.7422   21.2500 C   0  0  0  0  0  0  0  0  0  0  0  0
   20.7304   18.7219   20.8100 H   0  0  0  0  0  0  0  0  0  0  0  0
   19.2446   17.7866   20.9965 H   0  0  0  0  0  0  0  0  0  0  0  0
   18.9156   19.9031   20.6334 C   0  0  0  0  0  0  0  0  0  0  0  0
   19.3932   20.8606   20.8835 H   0  0  0  0  0  0  0  0  0  0  0  0
   17.9075   19.9255   21.0700 H   0  0  0  0  0  0  0  0  0  0  0  0
   18.8076   19.7691   19.1012 C   0  0  0  0  0  0  0  0  0  0  0  0
   19.8018   19.7758   18.6353 H   0  0  0  0  0  0  0  0  0  0  0  0
   18.2303   20.6023   18.6798 H   0  0  0  0  0  0  0  0  0  0  0  0
   18.3049   18.8335   18.8232 H   0  0  0  0  0  0  0  0  0  0  0  0
  1  2  1  0  0  0  0
  1  3  2  0  0  0  0
  1  4  1  0  0  0  0
  4  5  1  0  0  0  0
  4  6  1  0  0  0  0
  4  7  1  0  0  0  0
  7  8  1  0  0  0  0
  7  9  1  0  0  0  0
  7 10  1  0  0  0  0
 10 11  1  0  0  0  0
 10 12  1  0  0  0  0
 10 13  1  0  0  0  0
 13 14  1  0  0  0  0
 13 15  1  0  0  0  0
 13 16  1  0  0  0  0
 16 17  1  0  0  0  0
 16 18  1  0  0  0  0
 16 19  1  0  0  0  0
 19 20  1  0  0  0  0
 19 21  1  0  0  0  0
 19 22  1  0  0  0  0
M  END
> <VConfSearch Rank>
709

> <Conf_Id>
43

> <Delta U+W>
-0.129

> <U+W>
-53.289

> <U>
7.937

> <W>
-61.225

> <W(PB)>
-63.523

> <W(SA)>
2.297

> <Valence>
7.358

> <Coulomb>
-0.022

> <VdW>
0.601

> <VdW6>
-7.363

> <VdW12>
7.964

> <Bond>
0.121

> <Angle>
2.425

> <Pdih>
4.811

> <Idih>
0.000

> <Tether>
0.000

$$$$
VeraChem MOL file


 22 21  0  0  0  0  0  0  0  0999 V2000     
   19.8147   15.8630   23.6520 C   0  0  0  0  0  0  0  0  0  0  0  0
   20.8919   15.5846   24.1410 O   0  5  0  0  0  0  0  0  0  0  0  0
   19.3313   15.2695   22.7081 O   0  0  0  0  0  0  0  0  0  0  0  0
   19.0191   17.0092   24.2703 C   0  0  0  0  0  0  0  0  0  0  0  0
   19.0455   16.8771   25.3584 H   0  0  0  0  0  0  0  0  0  0  0  0
   17.9703   16.9126   23.9642 H   0  0  0  0  0  0  0  0  0  0  0  0
   19.5556   18.4179   23.9063 C   0  0  0  0  0  0  0  0  0  0  0  0
   19.0158   19.1689   24.4989 H   0  0  0  0  0  0  0  0  0  0  0  0
   20.6140   18.4896   24.1933 H   0  0  0  0  0  0  0  0  0  0  0  0
   19.3973   18.7443   22.4043 C   0  0  0  0  0  0  0  0  0  0  0  0
   18.3397   18.6585   22.1197 H   0  0  0  0  0  0  0  0  0  0  0  0
   19.9491   18.0068   21.8052 H   0  0  0  0  0  0  0  0  0  0  0  0
   19.9086   20.1622   22.0704 C   0  0  0  0  0  0  0  0  0  0  0  0
   19.3563   20.9019   22.6662 H   0  0  0  0  0  0  0  0  0  0  0  0
   20.9663   20.2472   22.3553 H   0  0  0  0  0  0  0  0  0  0  0  0
   19.7515   20.4886   20.5704 C   0  0  0  0  0  0  0  0  0  0  0  0
   18.6944   20.4062   20.2821 H   0  0  0  0  0  0  0  0  0  0  0  0
   20.3043   19.7518   19.9712 H   0  0  0  0  0  0  0  0  0  0  0  0
   20.2637   21.9051   20.2406 C   0  0  0  0  0  0  0  0  0  0  0  0
   19.7062   22.6652   20.8034 H   0  0  0  0  0  0  0  0  0  0  0  0
   20.1446   22.1202   19.1708 H   0  0  0  0  0  0  0  0  0  0  0  0
   21.3281   22.0058   20.4901 H   0  0  0  0  0  0  0  0  0  0  0  0
  1  2  1  0  0  0  0
  1  3  2  0  0  0  0
  1  4  1  0  0  0  0
  4  5  1  0  0  0  0
  4  6  1  0  0  0  0
  4  7  1  0  0  0  0
  7  8  1  0  0  0  0
  7  9  1  0  0  0  0
  7 10  1  0  0  0  0
 10 11  1  0  0  0  0
 10 12  1  0  0  0  0
 10 13  1  0  0  0  0
 13 14  1  0  0  0  0
 13 15  1  0  0  0  0
 13 16  1  0  0  0  0
 16 17  1  0  0  0  0
 16 18  1  0  0  0  0
 16 19  1  0  0  0  0
 19 20  1  0  0  0  0
 19 21  1  0  0  0  0
 19 22  1  0  0  0  0
M  END
> <VConfSearch Rank>
710

> <Conf_Id>
44

> <Delta U+W>
-0.155

> <U+W>
-53.314

> <U>
7.937

> <W>
-61.252

> <W(PB)>
-63.556

> <W(SA)>
2.304

> <Valence>
7.358

> <Coulomb>
-0.021

> <VdW>
0.600

> <VdW6>
-7.363

> <VdW12>
7.964

> <Bond>
0.121

> <Angle>
2.425

> <Pdih>
4.811

> <Idih>
0.001

> <Tether>
0.000

$$$$
VeraChem MOL file


 22 21  0  0  0  0  0  0  0  0999 V2000     
   16.3018   19.8133   22.5030 C   0  0  0  0  0  0  0  0  0  0  0  0
   15.7926   19.8594   21.4004 O   0  5  0  0  0  0  0  0  0  0  0  0
   16.1761   20.6867   23.3385 O   0  0  0  0  0  0  0  0  0  0  0  0
   17.1279   18.5814   22.8626 C   0  0  0  0  0  0  0  0  0  0  0  0
   16.5548   17.7007   22.5498 H   0  0  0  0  0  0  0  0  0  0  0  0
   17.2211   18.5282   23.9541 H   0  0  0  0  0  0  0  0  0  0  0  0
   18.5313   18.5463   22.2032 C   0  0  0  0  0  0  0  0  0  0  0  0
   18.9799   17.5631   22.3934 H   0  0  0  0  0  0  0  0  0  0  0  0
   18.4239   18.6411   21.1137 H   0  0  0  0  0  0  0  0  0  0  0  0
   19.4662   19.6582   22.7370 C   0  0  0  0  0  0  0  0  0  0  0  0
   19.6063   19.5366   23.8198 H   0  0  0  0  0  0  0  0  0  0  0  0
   18.9824   20.6344   22.5957 H   0  0  0  0  0  0  0  0  0  0  0  0
   20.8452   19.6935   22.0364 C   0  0  0  0  0  0  0  0  0  0  0  0
   20.7047   19.8149   20.9536 H   0  0  0  0  0  0  0  0  0  0  0  0
   21.3870   20.5850   22.3807 H   0  0  0  0  0  0  0  0  0  0  0  0
   21.7111   18.4436   22.3130 C   0  0  0  0  0  0  0  0  0  0  0  0
   21.2250   17.5481   21.9043 H   0  0  0  0  0  0  0  0  0  0  0  0
   21.8061   18.2910   23.3969 H   0  0  0  0  0  0  0  0  0  0  0  0
   23.1151   18.5796   21.6902 C   0  0  0  0  0  0  0  0  0  0  0  0
   23.0508   18.7063   20.6015 H   0  0  0  0  0  0  0  0  0  0  0  0
   23.7162   17.6835   21.8922 H   0  0  0  0  0  0  0  0  0  0  0  0
   23.6475   19.4453   22.1055 H   0  0  0  0  0  0  0  0  0  0  0  0
  1  2  1  0  0  0  0
  1  3  2  0  0  0  0
  1  4  1  0  0  0  0
  4  5  1  0  0  0  0
  4  6  1  0  0  0  0
  4  7  1  0  0  0  0
  7  8  1  0  0  0  0
  7  9  1  0  0  0  0
  7 10  1  0  0  0  0
 10 11  1  0  0  0  0
 10 12  1  0  0  0  0
 10 13  1  0  0  0  0
 13 14  1  0  0  0  0
 13 15  1  0  0  0  0
 13 16  1  0  0  0  0
 16 17  1  0  0  0  0
 16 18  1  0  0  0  0
 16 19  1  0  0  0  0
 19 20  1  0  0  0  0
 19 21  1  0  0  0  0
 19 22  1  0  0  0  0
M  END
> <VConfSearch Rank>
711

> <Conf_Id>
53

> <Delta U+W>
0.723

> <U+W>
-52.436

> <U>
8.587

> <W>
-61.022

> <W(PB)>
-63.285

> <W(SA)>
2.263

> <Valence>
7.933

> <Coulomb>
-0.124

> <VdW>
0.778

> <VdW6>
-7.981

> <VdW12>
8.759

> <Bond>
0.160

> <Angle>
2.698

> <Pdih>
5.074

> <Idih>
0.001

> <Tether>
0.000

$$$$
VeraChem MOL file


 22 21  0  0  0  0  0  0  0  0999 V2000     
   22.2861   16.7975   22.2250 C   0  0  0  0  0  0  0  0  0  0  0  0
   23.3035   17.3841   21.9128 O   0  5  0  0  0  0  0  0  0  0  0  0
   22.2520   15.6183   22.5163 O   0  0  0  0  0  0  0  0  0  0  0  0
   20.9844   17.5895   22.2757 C   0  0  0  0  0  0  0  0  0  0  0  0
   20.1616   16.9096   22.0247 H   0  0  0  0  0  0  0  0  0  0  0  0
   21.0317   18.3548   21.4929 H   0  0  0  0  0  0  0  0  0  0  0  0
   20.7350   18.2465   23.6567 C   0  0  0  0  0  0  0  0  0  0  0  0
   20.8296   17.4765   24.4350 H   0  0  0  0  0  0  0  0  0  0  0  0
   21.5264   18.9824   23.8549 H   0  0  0  0  0  0  0  0  0  0  0  0
   19.3487   18.9232   23.8011 C   0  0  0  0  0  0  0  0  0  0  0  0
   19.2730   19.3056   24.8282 H   0  0  0  0  0  0  0  0  0  0  0  0
   18.5510   18.1742   23.7024 H   0  0  0  0  0  0  0  0  0  0  0  0
   19.1016   20.1033   22.8275 C   0  0  0  0  0  0  0  0  0  0  0  0
   18.5198   20.8725   23.3537 H   0  0  0  0  0  0  0  0  0  0  0  0
   20.0560   20.5748   22.5560 H   0  0  0  0  0  0  0  0  0  0  0  0
   18.3208   19.6963   21.5565 C   0  0  0  0  0  0  0  0  0  0  0  0
   17.3452   19.2795   21.8423 H   0  0  0  0  0  0  0  0  0  0  0  0
   18.8523   18.9061   21.0130 H   0  0  0  0  0  0  0  0  0  0  0  0
   18.1042   20.8993   20.6167 C   0  0  0  0  0  0  0  0  0  0  0  0
   17.5376   21.6940   21.1194 H   0  0  0  0  0  0  0  0  0  0  0  0
   17.5431   20.5961   19.7233 H   0  0  0  0  0  0  0  0  0  0  0  0
   19.0644   21.3179   20.2879 H   0  0  0  0  0  0  0  0  0  0  0  0
  1  2  1  0  0  0  0
  1  3  2  0  0  0  0
  1  4  1  0  0  0  0
  4  5  1  0  0  0  0
  4  6  1  0  0  0  0
  4  7  1  0  0  0  0
  7  8  1  0  0  0  0
  7  9  1  0  0  0  0
  7 10  1  0  0  0  0
 10 11  1  0  0  0  0
 10 12  1  0  0  0  0
 10 13  1  0  0  0  0
 13 14  1  0  0  0  0
 13 15  1  0  0  0  0
 13 16  1  0  0  0  0
 16 17  1  0  0  0  0
 16 18  1  0  0  0  0
 16 19  1  0  0  0  0
 19 20  1  0  0  0  0
 19 21  1  0  0  0  0
 19 22  1  0  0  0  0
M  END
> <VConfSearch Rank>
712

> <Conf_Id>
5

> <Delta U+W>
2.167

> <U+W>
-50.993

> <U>
10.045

> <W>
-61.037

> <W(PB)>
-63.303

> <W(SA)>
2.266

> <Valence>
10.100

> <Coulomb>
-0.883

> <VdW>
0.828

> <VdW6>
-8.177

> <VdW12>
9.005

> <Bond>
0.182

> <Angle>
2.988

> <Pdih>
6.930

> <Idih>
0.001

> <Tether>
0.000

$$$$
VeraChem MOL file


 22 21  0  0  0  0  0  0  0  0999 V2000     
   22.0524   16.4940   21.5549 C   0  0  0  0  0  0  0  0  0  0  0  0
   22.6043   16.1098   22.5671 O   0  5  0  0  0  0  0  0  0  0  0  0
   22.3355   16.0963   20.4421 O   0  0  0  0  0  0  0  0  0  0  0  0
   20.9607   17.5499   21.6859 C   0  0  0  0  0  0  0  0  0  0  0  0
   20.4412   17.3732   22.6345 H   0  0  0  0  0  0  0  0  0  0  0  0
   20.2363   17.3936   20.8777 H   0  0  0  0  0  0  0  0  0  0  0  0
   21.5152   18.9960   21.6369 C   0  0  0  0  0  0  0  0  0  0  0  0
   22.1765   19.1587   22.4991 H   0  0  0  0  0  0  0  0  0  0  0  0
   22.1449   19.1013   20.7425 H   0  0  0  0  0  0  0  0  0  0  0  0
   20.4257   20.0972   21.6029 C   0  0  0  0  0  0  0  0  0  0  0  0
   19.8205   20.0014   20.6910 H   0  0  0  0  0  0  0  0  0  0  0  0
   20.9374   21.0658   21.5207 H   0  0  0  0  0  0  0  0  0  0  0  0
   19.5110   20.1393   22.8532 C   0  0  0  0  0  0  0  0  0  0  0  0
   20.0503   19.7525   23.7287 H   0  0  0  0  0  0  0  0  0  0  0  0
   19.2770   21.1890   23.0779 H   0  0  0  0  0  0  0  0  0  0  0  0
   18.1775   19.3801   22.6631 C   0  0  0  0  0  0  0  0  0  0  0  0
   18.3636   18.3303   22.4070 H   0  0  0  0  0  0  0  0  0  0  0  0
   17.6237   19.8158   21.8201 H   0  0  0  0  0  0  0  0  0  0  0  0
   17.3046   19.4443   23.9324 C   0  0  0  0  0  0  0  0  0  0  0  0
   17.8202   18.9860   24.7865 H   0  0  0  0  0  0  0  0  0  0  0  0
   16.3594   18.9074   23.7794 H   0  0  0  0  0  0  0  0  0  0  0  0
   17.0658   20.4836   24.1933 H   0  0  0  0  0  0  0  0  0  0  0  0
  1  2  1  0  0  0  0
  1  3  2  0  0  0  0
  1  4  1  0  0  0  0
  4  5  1  0  0  0  0
  4  6  1  0  0  0  0
  4  7  1  0  0  0  0
  7  8  1  0  0  0  0
  7  9  1  0  0  0  0
  7 10  1  0  0  0  0
 10 11  1  0  0  0  0
 10 12  1  0  0  0  0
 10 13  1  0  0  0  0
 13 14  1  0  0  0  0
 13 15  1  0  0  0  0
 13 16  1  0  0  0  0
 16 17  1  0  0  0  0
 16 18  1  0  0  0  0
 16 19  1  0  0  0  0
 19 20  1  0  0  0  0
 19 21  1  0  0  0  0
 19 22  1  0  0  0  0
M  END
> <VConfSearch Rank>
713

> <Conf_Id>
6

> <Delta U+W>
2.118

> <U+W>
-51.042

> <U>
10.045

> <W>
-61.086

> <W(PB)>
-63.356

> <W(SA)>
2.270

> <Valence>
10.100

> <Coulomb>
-0.883

> <VdW>
0.828

> <VdW6>
-8.177

> <VdW12>
9.004

> <Bond>
0.182

> <Angle>
2.988

> <Pdih>
6.930

> <Idih>
0.001

> <Tether>
0.000

$$$$
VeraChem MOL file


 22 21  0  0  0  0  0  0  0  0999 V2000     
   17.3467   17.9203   21.6293 C   0  0  0  0  0  0  0  0  0  0  0  0
   16.6901   18.8510   21.2049 O   0  5  0  0  0  0  0  0  0  0  0  0
   17.0522   17.2924   22.6273 O   0  0  0  0  0  0  0  0  0  0  0  0
   18.5671   17.4692   20.8289 C   0  0  0  0  0  0  0  0  0  0  0  0
   18.1900   17.1298   19.8573 H   0  0  0  0  0  0  0  0  0  0  0  0
   19.0097   16.5926   21.3172 H   0  0  0  0  0  0  0  0  0  0  0  0
   19.6498   18.5607   20.5977 C   0  0  0  0  0  0  0  0  0  0  0  0
   20.2624   18.2539   19.7392 H   0  0  0  0  0  0  0  0  0  0  0  0
   19.1722   19.5062   20.3053 H   0  0  0  0  0  0  0  0  0  0  0  0
   20.6021   18.7952   21.7965 C   0  0  0  0  0  0  0  0  0  0  0  0
   21.4088   19.4639   21.4663 H   0  0  0  0  0  0  0  0  0  0  0  0
   21.0822   17.8481   22.0780 H   0  0  0  0  0  0  0  0  0  0  0  0
   19.9165   19.4179   23.0337 C   0  0  0  0  0  0  0  0  0  0  0  0
   19.3507   20.3101   22.7322 H   0  0  0  0  0  0  0  0  0  0  0  0
   19.1951   18.7078   23.4573 H   0  0  0  0  0  0  0  0  0  0  0  0
   20.9417   19.7991   24.1225 C   0  0  0  0  0  0  0  0  0  0  0  0
   21.6664   20.5175   23.7151 H   0  0  0  0  0  0  0  0  0  0  0  0
   21.5096   18.9080   24.4239 H   0  0  0  0  0  0  0  0  0  0  0  0
   20.2548   20.4116   25.3596 C   0  0  0  0  0  0  0  0  0  0  0  0
   19.7043   21.3231   25.0919 H   0  0  0  0  0  0  0  0  0  0  0  0
   20.9973   20.6758   26.1238 H   0  0  0  0  0  0  0  0  0  0  0  0
   19.5458   19.7021   25.8062 H   0  0  0  0  0  0  0  0  0  0  0  0
  1  2  1  0  0  0  0
  1  3  2  0  0  0  0
  1  4  1  0  0  0  0
  4  5  1  0  0  0  0
  4  6  1  0  0  0  0
  4  7  1  0  0  0  0
  7  8  1  0  0  0  0
  7  9  1  0  0  0  0
  7 10  1  0  0  0  0
 10 11  1  0  0  0  0
 10 12  1  0  0  0  0
 10 13  1  0  0  0  0
 13 14  1  0  0  0  0
 13 15  1  0  0  0  0
 13 16  1  0  0  0  0
 16 17  1  0  0  0  0
 16 18  1  0  0  0  0
 16 19  1  0  0  0  0
 19 20  1  0  0  0  0
 19 21  1  0  0  0  0
 19 22  1  0  0  0  0
M  END
> <VConfSearch Rank>
714

> <Conf_Id>
8

> <Delta U+W>
1.886

> <U+W>
-51.274

> <U>
11.237

> <W>
-62.510

> <W(PB)>
-64.777

> <W(SA)>
2.267

> <Valence>
9.029

> <Coulomb>
1.667

> <VdW>
0.540

> <VdW6>
-8.825

> <VdW12>
9.365

> <Bond>
0.186

> <Angle>
3.195

> <Pdih>
5.642

> <Idih>
0.007

> <Tether>
0.000

$$$$
VeraChem MOL file


 22 21  0  0  0  0  0  0  0  0999 V2000     
   18.5514   20.3093   19.9203 C   0  0  0  0  0  0  0  0  0  0  0  0
   18.8866   19.3447   19.2616 O   0  5  0  0  0  0  0  0  0  0  0  0
   18.7646   21.4583   19.5861 O   0  0  0  0  0  0  0  0  0  0  0  0
   17.7950   20.0682   21.2237 C   0  0  0  0  0  0  0  0  0  0  0  0
   17.4431   19.0306   21.2391 H   0  0  0  0  0  0  0  0  0  0  0  0
   16.8980   20.6980   21.2005 H   0  0  0  0  0  0  0  0  0  0  0  0
   18.6146   20.3906   22.5033 C   0  0  0  0  0  0  0  0  0  0  0  0
   18.8808   21.4565   22.4898 H   0  0  0  0  0  0  0  0  0  0  0  0
   17.9774   20.2444   23.3859 H   0  0  0  0  0  0  0  0  0  0  0  0
   19.9100   19.5575   22.6664 C   0  0  0  0  0  0  0  0  0  0  0  0
   20.4472   19.9359   23.5452 H   0  0  0  0  0  0  0  0  0  0  0  0
   20.5699   19.7250   21.8042 H   0  0  0  0  0  0  0  0  0  0  0  0
   19.6501   18.0403   22.8341 C   0  0  0  0  0  0  0  0  0  0  0  0
   18.9747   17.8699   23.6834 H   0  0  0  0  0  0  0  0  0  0  0  0
   19.1351   17.6603   21.9423 H   0  0  0  0  0  0  0  0  0  0  0  0
   20.9428   17.2132   23.0260 C   0  0  0  0  0  0  0  0  0  0  0  0
   21.6267   17.3940   22.1852 H   0  0  0  0  0  0  0  0  0  0  0  0
   20.6849   16.1458   22.9916 H   0  0  0  0  0  0  0  0  0  0  0  0
   21.6667   17.5043   24.3588 C   0  0  0  0  0  0  0  0  0  0  0  0
   22.0529   18.5305   24.3906 H   0  0  0  0  0  0  0  0  0  0  0  0
   22.5194   16.8253   24.4879 H   0  0  0  0  0  0  0  0  0  0  0  0
   20.9905   17.3634   25.2121 H   0  0  0  0  0  0  0  0  0  0  0  0
  1  2  1  0  0  0  0
  1  3  2  0  0  0  0
  1  4  1  0  0  0  0
  4  5  1  0  0  0  0
  4  6  1  0  0  0  0
  4  7  1  0  0  0  0
  7  8  1  0  0  0  0
  7  9  1  0  0  0  0
  7 10  1  0  0  0  0
 10 11  1  0  0  0  0
 10 12  1  0  0  0  0
 10 13  1  0  0  0  0
 13 14  1  0  0  0  0
 13 15  1  0  0  0  0
 13 16  1  0  0  0  0
 16 17  1  0  0  0  0
 16 18  1  0  0  0  0
 16 19  1  0  0  0  0
 19 20  1  0  0  0  0
 19 21  1  0  0  0  0
 19 22  1  0  0  0  0
M  END
> <VConfSearch Rank>
715

> <Conf_Id>
93

> <Delta U+W>
1.836

> <U+W>
-51.323

> <U>
10.427

> <W>
-61.751

> <W(PB)>
-63.980

> <W(SA)>
2.230

> <Valence>
8.446

> <Coulomb>
1.306

> <VdW>
0.676

> <VdW6>
-8.928

> <VdW12>
9.604

> <Bond>
0.209

> <Angle>
3.066

> <Pdih>
5.170

> <Idih>
0.001

> <Tether>
0.000

$$$$
VeraChem MOL file


 22 21  0  0  0  0  0  0  0  0999 V2000     
   18.1131   20.6867   24.5762 C   0  0  0  0  0  0  0  0  0  0  0  0
   18.4730   21.7191   25.1072 O   0  5  0  0  0  0  0  0  0  0  0  0
   17.9214   19.6509   25.1821 O   0  0  0  0  0  0  0  0  0  0  0  0
   17.8599   20.7024   23.0713 C   0  0  0  0  0  0  0  0  0  0  0  0
   17.2114   21.5606   22.8595 H   0  0  0  0  0  0  0  0  0  0  0  0
   17.2864   19.8084   22.8020 H   0  0  0  0  0  0  0  0  0  0  0  0
   19.1489   20.8094   22.2109 C   0  0  0  0  0  0  0  0  0  0  0  0
   18.8702   20.8717   21.1503 H   0  0  0  0  0  0  0  0  0  0  0  0
   19.6537   21.7551   22.4519 H   0  0  0  0  0  0  0  0  0  0  0  0
   20.1531   19.6467   22.4064 C   0  0  0  0  0  0  0  0  0  0  0  0
   20.4652   19.5990   23.4587 H   0  0  0  0  0  0  0  0  0  0  0  0
   21.0554   19.8778   21.8264 H   0  0  0  0  0  0  0  0  0  0  0  0
   19.5957   18.2704   21.9673 C   0  0  0  0  0  0  0  0  0  0  0  0
   18.7081   18.0311   22.5671 H   0  0  0  0  0  0  0  0  0  0  0  0
   19.2643   18.3195   20.9213 H   0  0  0  0  0  0  0  0  0  0  0  0
   20.6099   17.1150   22.1358 C   0  0  0  0  0  0  0  0  0  0  0  0
   20.0941   16.1643   21.9424 H   0  0  0  0  0  0  0  0  0  0  0  0
   20.9549   17.0737   23.1783 H   0  0  0  0  0  0  0  0  0  0  0  0
   21.8248   17.2202   21.1883 C   0  0  0  0  0  0  0  0  0  0  0  0
   22.4436   18.0948   21.4238 H   0  0  0  0  0  0  0  0  0  0  0  0
   21.5015   17.2978   20.1421 H   0  0  0  0  0  0  0  0  0  0  0  0
   22.4606   16.3302   21.2802 H   0  0  0  0  0  0  0  0  0  0  0  0
  1  2  1  0  0  0  0
  1  3  2  0  0  0  0
  1  4  1  0  0  0  0
  4  5  1  0  0  0  0
  4  6  1  0  0  0  0
  4  7  1  0  0  0  0
  7  8  1  0  0  0  0
  7  9  1  0  0  0  0
  7 10  1  0  0  0  0
 10 11  1  0  0  0  0
 10 12  1  0  0  0  0
 10 13  1  0  0  0  0
 13 14  1  0  0  0  0
 13 15  1  0  0  0  0
 13 16  1  0  0  0  0
 16 17  1  0  0  0  0
 16 18  1  0  0  0  0
 16 19  1  0  0  0  0
 19 20  1  0  0  0  0
 19 21  1  0  0  0  0
 19 22  1  0  0  0  0
M  END
> <VConfSearch Rank>
716

> <Conf_Id>
70

> <Delta U+W>
1.803

> <U+W>
-51.356

> <U>
10.428

> <W>
-61.784

> <W(PB)>
-64.014

> <W(SA)>
2.230

> <Valence>
8.445

> <Coulomb>
1.306

> <VdW>
0.676

> <VdW6>
-8.929

> <VdW12>
9.605

> <Bond>
0.209

> <Angle>
3.066

> <Pdih>
5.170

> <Idih>
0.001

> <Tether>
0.000

$$$$
VeraChem MOL file


 22 21  0  0  0  0  0  0  0  0999 V2000     
   19.0804   21.0857   24.9259 C   0  0  0  0  0  0  0  0  0  0  0  0
   17.8671   21.1404   24.9691 O   0  5  0  0  0  0  0  0  0  0  0  0
   19.7936   22.0622   24.8054 O   0  0  0  0  0  0  0  0  0  0  0  0
   19.7433   19.7167   25.0511 C   0  0  0  0  0  0  0  0  0  0  0  0
   19.2479   19.1858   25.8725 H   0  0  0  0  0  0  0  0  0  0  0  0
   20.7886   19.8600   25.3507 H   0  0  0  0  0  0  0  0  0  0  0  0
   19.6677   18.8602   23.7606 C   0  0  0  0  0  0  0  0  0  0  0  0
   20.0476   17.8529   23.9781 H   0  0  0  0  0  0  0  0  0  0  0  0
   18.6148   18.7470   23.4703 H   0  0  0  0  0  0  0  0  0  0  0  0
   20.4812   19.4724   22.5953 C   0  0  0  0  0  0  0  0  0  0  0  0
   21.5090   19.6577   22.9364 H   0  0  0  0  0  0  0  0  0  0  0  0
   20.0645   20.4521   22.3234 H   0  0  0  0  0  0  0  0  0  0  0  0
   20.5354   18.5692   21.3404 C   0  0  0  0  0  0  0  0  0  0  0  0
   21.2281   19.0202   20.6168 H   0  0  0  0  0  0  0  0  0  0  0  0
   20.9591   17.5916   21.6081 H   0  0  0  0  0  0  0  0  0  0  0  0
   19.1602   18.3735   20.6631 C   0  0  0  0  0  0  0  0  0  0  0  0
   18.7128   19.3527   20.4434 H   0  0  0  0  0  0  0  0  0  0  0  0
   18.4738   17.8531   21.3439 H   0  0  0  0  0  0  0  0  0  0  0  0
   19.2831   17.5618   19.3578 C   0  0  0  0  0  0  0  0  0  0  0  0
   19.9338   18.0733   18.6364 H   0  0  0  0  0  0  0  0  0  0  0  0
   18.2985   17.4289   18.8909 H   0  0  0  0  0  0  0  0  0  0  0  0
   19.7030   16.5663   19.5529 H   0  0  0  0  0  0  0  0  0  0  0  0
  1  2  1  0  0  0  0
  1  3  2  0  0  0  0
  1  4  1  0  0  0  0
  4  5  1  0  0  0  0
  4  6  1  0  0  0  0
  4  7  1  0  0  0  0
  7  8  1  0  0  0  0
  7  9  1  0  0  0  0
  7 10  1  0  0  0  0
 10 11  1  0  0  0  0
 10 12  1  0  0  0  0
 10 13  1  0  0  0  0
 13 14  1  0  0  0  0
 13 15  1  0  0  0  0
 13 16  1  0  0  0  0
 16 17  1  0  0  0  0
 16 18  1  0  0  0  0
 16 19  1  0  0  0  0
 19 20  1  0  0  0  0
 19 21  1  0  0  0  0
 19 22  1  0  0  0  0
M  END
> <VConfSearch Rank>
717

> <Conf_Id>
85

> <Delta U+W>
0.707

> <U+W>
-52.452

> <U>
8.925

> <W>
-61.378

> <W(PB)>
-63.661

> <W(SA)>
2.283

> <Valence>
7.881

> <Coulomb>
0.349

> <VdW>
0.695

> <VdW6>
-8.049

> <VdW12>
8.743

> <Bond>
0.156

> <Angle>
2.660

> <Pdih>
5.064

> <Idih>
0.001

> <Tether>
0.000

$$$$
VeraChem MOL file


 22 21  0  0  0  0  0  0  0  0999 V2000     
   20.6361   19.3909   19.1768 C   0  0  0  0  0  0  0  0  0  0  0  0
   21.8163   19.6321   19.0162 O   0  5  0  0  0  0  0  0  0  0  0  0
   20.0156   18.5923   18.5028 O   0  0  0  0  0  0  0  0  0  0  0  0
   19.8848   20.1481   20.2684 C   0  0  0  0  0  0  0  0  0  0  0  0
   18.9423   20.4998   19.8324 H   0  0  0  0  0  0  0  0  0  0  0  0
   20.4625   21.0406   20.5377 H   0  0  0  0  0  0  0  0  0  0  0  0
   19.5850   19.3025   21.5336 C   0  0  0  0  0  0  0  0  0  0  0  0
   18.9140   19.8785   22.1831 H   0  0  0  0  0  0  0  0  0  0  0  0
   19.0475   18.3891   21.2434 H   0  0  0  0  0  0  0  0  0  0  0  0
   20.8645   18.9331   22.3194 C   0  0  0  0  0  0  0  0  0  0  0  0
   21.3494   19.8508   22.6790 H   0  0  0  0  0  0  0  0  0  0  0  0
   21.5811   18.4548   21.6378 H   0  0  0  0  0  0  0  0  0  0  0  0
   20.6236   17.9757   23.5135 C   0  0  0  0  0  0  0  0  0  0  0  0
   20.2244   17.0177   23.1533 H   0  0  0  0  0  0  0  0  0  0  0  0
   21.6034   17.7438   23.9529 H   0  0  0  0  0  0  0  0  0  0  0  0
   19.7176   18.5482   24.6322 C   0  0  0  0  0  0  0  0  0  0  0  0
   19.7858   19.6446   24.6543 H   0  0  0  0  0  0  0  0  0  0  0  0
   20.0957   18.1993   25.6031 H   0  0  0  0  0  0  0  0  0  0  0  0
   18.2428   18.1051   24.5077 C   0  0  0  0  0  0  0  0  0  0  0  0
   17.7955   18.4348   23.5632 H   0  0  0  0  0  0  0  0  0  0  0  0
   17.6452   18.5260   25.3266 H   0  0  0  0  0  0  0  0  0  0  0  0
   18.1585   17.0117   24.5584 H   0  0  0  0  0  0  0  0  0  0  0  0
  1  2  1  0  0  0  0
  1  3  2  0  0  0  0
  1  4  1  0  0  0  0
  4  5  1  0  0  0  0
  4  6  1  0  0  0  0
  4  7  1  0  0  0  0
  7  8  1  0  0  0  0
  7  9  1  0  0  0  0
  7 10  1  0  0  0  0
 10 11  1  0  0  0  0
 10 12  1  0  0  0  0
 10 13  1  0  0  0  0
 13 14  1  0  0  0  0
 13 15  1  0  0  0  0
 13 16  1  0  0  0  0
 16 17  1  0  0  0  0
 16 18  1  0  0  0  0
 16 19  1  0  0  0  0
 19 20  1  0  0  0  0
 19 21  1  0  0  0  0
 19 22  1  0  0  0  0
M  END
> <VConfSearch Rank>
718

> <Conf_Id>
82

> <Delta U+W>
3.438

> <U+W>
-49.721

> <U>
11.773

> <W>
-61.495

> <W(PB)>
-63.749

> <W(SA)>
2.254

> <Valence>
10.419

> <Coulomb>
0.565

> <VdW>
0.789

> <VdW6>
-8.847

> <VdW12>
9.636

> <Bond>
0.200

> <Angle>
3.187

> <Pdih>
7.032

> <Idih>
0.001

> <Tether>
0.000

$$$$
VeraChem MOL file


 22 21  0  0  0  0  0  0  0  0999 V2000     
   18.0703   16.2150   23.0615 C   0  0  0  0  0  0  0  0  0  0  0  0
   17.5161   16.3947   24.1281 O   0  5  0  0  0  0  0  0  0  0  0  0
   17.5077   15.7775   22.0771 O   0  0  0  0  0  0  0  0  0  0  0  0
   19.5593   16.5348   22.9617 C   0  0  0  0  0  0  0  0  0  0  0  0
   19.9726   16.0136   22.0897 H   0  0  0  0  0  0  0  0  0  0  0  0
   20.0453   16.1074   23.8466 H   0  0  0  0  0  0  0  0  0  0  0  0
   19.8769   18.0508   22.8794 C   0  0  0  0  0  0  0  0  0  0  0  0
   19.4173   18.5670   23.7336 H   0  0  0  0  0  0  0  0  0  0  0  0
   20.9625   18.1816   22.9700 H   0  0  0  0  0  0  0  0  0  0  0  0
   19.3938   18.6891   21.5565 C   0  0  0  0  0  0  0  0  0  0  0  0
   18.3287   18.4607   21.4135 H   0  0  0  0  0  0  0  0  0  0  0  0
   19.9225   18.2248   20.7129 H   0  0  0  0  0  0  0  0  0  0  0  0
   19.5690   20.2271   21.4909 C   0  0  0  0  0  0  0  0  0  0  0  0
   19.1419   20.5672   20.5376 H   0  0  0  0  0  0  0  0  0  0  0  0
   18.9684   20.7082   22.2749 H   0  0  0  0  0  0  0  0  0  0  0  0
   21.0370   20.7169   21.5626 C   0  0  0  0  0  0  0  0  0  0  0  0
   21.1492   21.5877   20.9020 H   0  0  0  0  0  0  0  0  0  0  0  0
   21.7155   19.9469   21.1703 H   0  0  0  0  0  0  0  0  0  0  0  0
   21.4694   21.1384   22.9847 C   0  0  0  0  0  0  0  0  0  0  0  0
   20.8418   21.9590   23.3560 H   0  0  0  0  0  0  0  0  0  0  0  0
   22.5102   21.4870   22.9819 H   0  0  0  0  0  0  0  0  0  0  0  0
   21.3964   20.3086   23.6968 H   0  0  0  0  0  0  0  0  0  0  0  0
  1  2  1  0  0  0  0
  1  3  2  0  0  0  0
  1  4  1  0  0  0  0
  4  5  1  0  0  0  0
  4  6  1  0  0  0  0
  4  7  1  0  0  0  0
  7  8  1  0  0  0  0
  7  9  1  0  0  0  0
  7 10  1  0  0  0  0
 10 11  1  0  0  0  0
 10 12  1  0  0  0  0
 10 13  1  0  0  0  0
 13 14  1  0  0  0  0
 13 15  1  0  0  0  0
 13 16  1  0  0  0  0
 16 17  1  0  0  0  0
 16 18  1  0  0  0  0
 16 19  1  0  0  0  0
 19 20  1  0  0  0  0
 19 21  1  0  0  0  0
 19 22  1  0  0  0  0
M  END
> <VConfSearch Rank>
719

> <Conf_Id>
94

> <Delta U+W>
3.471

> <U+W>
-49.688

> <U>
11.773

> <W>
-61.461

> <W(PB)>
-63.710

> <W(SA)>
2.248

> <Valence>
10.419

> <Coulomb>
0.566

> <VdW>
0.789

> <VdW6>
-8.847

> <VdW12>
9.636

> <Bond>
0.200

> <Angle>
3.187

> <Pdih>
7.032

> <Idih>
0.001

> <Tether>
0.000

$$$$
VeraChem MOL file


 22 21  0  0  0  0  0  0  0  0999 V2000     
   17.4980   21.4056   21.8500 C   0  0  0  0  0  0  0  0  0  0  0  0
   16.2971   21.4143   22.0357 O   0  5  0  0  0  0  0  0  0  0  0  0
   18.0497   22.0584   20.9863 O   0  0  0  0  0  0  0  0  0  0  0  0
   18.3570   20.5117   22.7371 C   0  0  0  0  0  0  0  0  0  0  0  0
   17.8897   20.4642   23.7279 H   0  0  0  0  0  0  0  0  0  0  0  0
   19.3308   20.9994   22.8591 H   0  0  0  0  0  0  0  0  0  0  0  0
   18.5324   19.0834   22.1594 C   0  0  0  0  0  0  0  0  0  0  0  0
   17.5387   18.6540   21.9719 H   0  0  0  0  0  0  0  0  0  0  0  0
   19.0277   19.1410   21.1810 H   0  0  0  0  0  0  0  0  0  0  0  0
   19.3141   18.1292   23.0967 C   0  0  0  0  0  0  0  0  0  0  0  0
   19.3476   17.1313   22.6399 H   0  0  0  0  0  0  0  0  0  0  0  0
   18.7493   18.0091   24.0312 H   0  0  0  0  0  0  0  0  0  0  0  0
   20.7568   18.5811   23.4453 C   0  0  0  0  0  0  0  0  0  0  0  0
   20.7151   19.4988   24.0464 H   0  0  0  0  0  0  0  0  0  0  0  0
   21.2139   17.8222   24.0947 H   0  0  0  0  0  0  0  0  0  0  0  0
   21.6846   18.8201   22.2287 C   0  0  0  0  0  0  0  0  0  0  0  0
   22.6629   19.1594   22.5956 H   0  0  0  0  0  0  0  0  0  0  0  0
   21.2925   19.6374   21.6088 H   0  0  0  0  0  0  0  0  0  0  0  0
   21.8893   17.5595   21.3610 C   0  0  0  0  0  0  0  0  0  0  0  0
   22.2660   16.7239   21.9650 H   0  0  0  0  0  0  0  0  0  0  0  0
   22.6171   17.7561   20.5632 H   0  0  0  0  0  0  0  0  0  0  0  0
   20.9511   17.2461   20.8860 H   0  0  0  0  0  0  0  0  0  0  0  0
  1  2  1  0  0  0  0
  1  3  2  0  0  0  0
  1  4  1  0  0  0  0
  4  5  1  0  0  0  0
  4  6  1  0  0  0  0
  4  7  1  0  0  0  0
  7  8  1  0  0  0  0
  7  9  1  0  0  0  0
  7 10  1  0  0  0  0
 10 11  1  0  0  0  0
 10 12  1  0  0  0  0
 10 13  1  0  0  0  0
 13 14  1  0  0  0  0
 13 15  1  0  0  0  0
 13 16  1  0  0  0  0
 16 17  1  0  0  0  0
 16 18  1  0  0  0  0
 16 19  1  0  0  0  0
 19 20  1  0  0  0  0
 19 21  1  0  0  0  0
 19 22  1  0  0  0  0
M  END
> <VConfSearch Rank>
720

> <Conf_Id>
56

> <Delta U+W>
0.853

> <U+W>
-52.307

> <U>
8.874

> <W>
-61.181

> <W(PB)>
-63.413

> <W(SA)>
2.232

> <Valence>
8.479

> <Coulomb>
-0.357

> <VdW>
0.753

> <VdW6>
-9.081

> <VdW12>
9.833

> <Bond>
0.221

> <Angle>
3.208

> <Pdih>
5.050

> <Idih>
0.000

> <Tether>
0.000

$$$$
VeraChem MOL file


 22 21  0  0  0  0  0  0  0  0999 V2000     
   21.8169   22.3633   23.0536 C   0  0  0  0  0  0  0  0  0  0  0  0
   21.4669   22.3385   24.2178 O   0  5  0  0  0  0  0  0  0  0  0  0
   22.5242   23.2365   22.5920 O   0  0  0  0  0  0  0  0  0  0  0  0
   21.3613   21.2573   22.1003 C   0  0  0  0  0  0  0  0  0  0  0  0
   22.2627   20.7961   21.6800 H   0  0  0  0  0  0  0  0  0  0  0  0
   20.8305   21.7389   21.2707 H   0  0  0  0  0  0  0  0  0  0  0  0
   20.4605   20.1647   22.7354 C   0  0  0  0  0  0  0  0  0  0  0  0
   20.9959   19.6906   23.5697 H   0  0  0  0  0  0  0  0  0  0  0  0
   19.5623   20.6342   23.1598 H   0  0  0  0  0  0  0  0  0  0  0  0
   20.0480   19.0906   21.7055 C   0  0  0  0  0  0  0  0  0  0  0  0
   20.9476   18.6227   21.2826 H   0  0  0  0  0  0  0  0  0  0  0  0
   19.5131   19.5669   20.8724 H   0  0  0  0  0  0  0  0  0  0  0  0
   19.1520   18.0048   22.3393 C   0  0  0  0  0  0  0  0  0  0  0  0
   19.6864   17.5282   23.1726 H   0  0  0  0  0  0  0  0  0  0  0  0
   18.2522   18.4723   22.7623 H   0  0  0  0  0  0  0  0  0  0  0  0
   18.7394   16.9311   21.3107 C   0  0  0  0  0  0  0  0  0  0  0  0
   19.6369   16.4598   20.8868 H   0  0  0  0  0  0  0  0  0  0  0  0
   18.2027   17.4039   20.4765 H   0  0  0  0  0  0  0  0  0  0  0  0
   17.8447   15.8488   21.9475 C   0  0  0  0  0  0  0  0  0  0  0  0
   18.3687   15.3374   22.7656 H   0  0  0  0  0  0  0  0  0  0  0  0
   17.5609   15.0940   21.2026 H   0  0  0  0  0  0  0  0  0  0  0  0
   16.9237   16.2886   22.3521 H   0  0  0  0  0  0  0  0  0  0  0  0
  1  2  1  0  0  0  0
  1  3  2  0  0  0  0
  1  4  1  0  0  0  0
  4  5  1  0  0  0  0
  4  6  1  0  0  0  0
  4  7  1  0  0  0  0
  7  8  1  0  0  0  0
  7  9  1  0  0  0  0
  7 10  1  0  0  0  0
 10 11  1  0  0  0  0
 10 12  1  0  0  0  0
 10 13  1  0  0  0  0
 13 14  1  0  0  0  0
 13 15  1  0  0  0  0
 13 16  1  0  0  0  0
 16 17  1  0  0  0  0
 16 18  1  0  0  0  0
 16 19  1  0  0  0  0
 19 20  1  0  0  0  0
 19 21  1  0  0  0  0
 19 22  1  0  0  0  0
M  END
> <VConfSearch Rank>
721

> <Conf_Id>
0

> <Delta U+W>
0.000

> <U+W>
-53.159

> <U>
6.763

> <W>
-59.922

> <W(PB)>
-62.256

> <W(SA)>
2.334

> <Valence>
7.600

> <Coulomb>
-2.139

> <VdW>
1.302

> <VdW6>
-6.786

> <VdW12>
8.088

> <Bond>
0.134

> <Angle>
2.720

> <Pdih>
4.746

> <Idih>
0.000

> <Tether>
0.000

$$$$
VeraChem MOL file


 22 21  0  0  0  0  0  0  0  0999 V2000     
   23.4675   19.9541   20.8358 C   0  0  0  0  0  0  0  0  0  0  0  0
   23.9155   19.1923   20.0019 O   0  5  0  0  0  0  0  0  0  0  0  0
   24.1538   20.5428   21.6475 O   0  0  0  0  0  0  0  0  0  0  0  0
   21.9584   20.1656   20.8808 C   0  0  0  0  0  0  0  0  0  0  0  0
   21.5717   20.0797   19.8581 H   0  0  0  0  0  0  0  0  0  0  0  0
   21.7681   21.1929   21.2141 H   0  0  0  0  0  0  0  0  0  0  0  0
   21.2372   19.1595   21.8112 C   0  0  0  0  0  0  0  0  0  0  0  0
   21.4483   18.1358   21.4719 H   0  0  0  0  0  0  0  0  0  0  0  0
   21.6448   19.2490   22.8278 H   0  0  0  0  0  0  0  0  0  0  0  0
   19.7115   19.3944   21.8394 C   0  0  0  0  0  0  0  0  0  0  0  0
   19.3075   19.3054   20.8215 H   0  0  0  0  0  0  0  0  0  0  0  0
   19.5040   20.4189   22.1777 H   0  0  0  0  0  0  0  0  0  0  0  0
   18.9953   18.3901   22.7677 C   0  0  0  0  0  0  0  0  0  0  0  0
   19.2026   17.3654   22.4296 H   0  0  0  0  0  0  0  0  0  0  0  0
   19.3990   18.4787   23.7856 H   0  0  0  0  0  0  0  0  0  0  0  0
   17.4704   18.6242   22.7963 C   0  0  0  0  0  0  0  0  0  0  0  0
   17.0625   18.5344   21.7800 H   0  0  0  0  0  0  0  0  0  0  0  0
   17.2589   19.6476   23.1360 H   0  0  0  0  0  0  0  0  0  0  0  0
   16.7589   17.6193   23.7244 C   0  0  0  0  0  0  0  0  0  0  0  0
   17.1255   17.7092   24.7554 H   0  0  0  0  0  0  0  0  0  0  0  0
   16.9277   16.5875   23.3892 H   0  0  0  0  0  0  0  0  0  0  0  0
   15.6761   17.8000   23.7328 H   0  0  0  0  0  0  0  0  0  0  0  0
  1  2  1  0  0  0  0
  1  3  2  0  0  0  0
  1  4  1  0  0  0  0
  4  5  1  0  0  0  0
  4  6  1  0  0  0  0
  4  7  1  0  0  0  0
  7  8  1  0  0  0  0
  7  9  1  0  0  0  0
  7 10  1  0  0  0  0
 10 11  1  0  0  0  0
 10 12  1  0  0  0  0
 10 13  1  0  0  0  0
 13 14  1  0  0  0  0
 13 15  1  0  0  0  0
 13 16  1  0  0  0  0
 16 17  1  0  0  0  0
 16 18  1  0  0  0  0
 16 19  1  0  0  0  0
 19 20  1  0  0  0  0
 19 21  1  0  0  0  0
 19 22  1  0  0  0  0
M  END
> <VConfSearch Rank>
722

> <Conf_Id>
10

> <Delta U+W>
-1.291

> <U+W>
-54.451

> <U>
5.779

> <W>
-60.230

> <W(PB)>
-62.557

> <W(SA)>
2.328

> <Valence>
7.101

> <Coulomb>
-2.079

> <VdW>
0.757

> <VdW6>
-6.496

> <VdW12>
7.253

> <Bond>
0.100

> <Angle>
2.262

> <Pdih>
4.738

> <Idih>
0.001

> <Tether>
0.000

$$$$
VeraChem MOL file


 22 21  0  0  0  0  0  0  0  0999 V2000     
   21.0580   19.4148   25.8915 C   0  0  0  0  0  0  0  0  0  0  0  0
   21.9823   20.1973   25.9906 O   0  5  0  0  0  0  0  0  0  0  0  0
   20.2582   19.2017   26.7812 O   0  0  0  0  0  0  0  0  0  0  0  0
   20.8793   18.6752   24.5704 C   0  0  0  0  0  0  0  0  0  0  0  0
   20.4522   17.6887   24.7873 H   0  0  0  0  0  0  0  0  0  0  0  0
   21.8723   18.5101   24.1353 H   0  0  0  0  0  0  0  0  0  0  0  0
   19.9777   19.4396   23.5699 C   0  0  0  0  0  0  0  0  0  0  0  0
   18.9922   19.6084   24.0258 H   0  0  0  0  0  0  0  0  0  0  0  0
   20.4121   20.4296   23.3729 H   0  0  0  0  0  0  0  0  0  0  0  0
   19.8127   18.6704   22.2412 C   0  0  0  0  0  0  0  0  0  0  0  0
   19.3764   17.6822   22.4409 H   0  0  0  0  0  0  0  0  0  0  0  0
   20.8028   18.5010   21.7982 H   0  0  0  0  0  0  0  0  0  0  0  0
   18.9150   19.4393   21.2446 C   0  0  0  0  0  0  0  0  0  0  0  0
   17.9541   19.6626   21.7280 H   0  0  0  0  0  0  0  0  0  0  0  0
   19.3744   20.4076   21.0033 H   0  0  0  0  0  0  0  0  0  0  0  0
   18.6377   18.6589   19.9386 C   0  0  0  0  0  0  0  0  0  0  0  0
   17.9038   19.2188   19.3427 H   0  0  0  0  0  0  0  0  0  0  0  0
   18.1723   17.6922   20.1756 H   0  0  0  0  0  0  0  0  0  0  0  0
   19.9024   18.4306   19.0826 C   0  0  0  0  0  0  0  0  0  0  0  0
   19.6396   17.9538   18.1294 H   0  0  0  0  0  0  0  0  0  0  0  0
   20.6198   17.7768   19.5940 H   0  0  0  0  0  0  0  0  0  0  0  0
   20.4019   19.3820   18.8581 H   0  0  0  0  0  0  0  0  0  0  0  0
  1  2  1  0  0  0  0
  1  3  2  0  0  0  0
  1  4  1  0  0  0  0
  4  5  1  0  0  0  0
  4  6  1  0  0  0  0
  4  7  1  0  0  0  0
  7  8  1  0  0  0  0
  7  9  1  0  0  0  0
  7 10  1  0  0  0  0
 10 11  1  0  0  0  0
 10 12  1  0  0  0  0
 10 13  1  0  0  0  0
 13 14  1  0  0  0  0
 13 15  1  0  0  0  0
 13 16  1  0  0  0  0
 16 17  1  0  0  0  0
 16 18  1  0  0  0  0
 16 19  1  0  0  0  0
 19 20  1  0  0  0  0
 19 21  1  0  0  0  0
 19 22  1  0  0  0  0
M  END
> <VConfSearch Rank>
723

> <Conf_Id>
37

> <Delta U+W>
-0.345

> <U+W>
-53.504

> <U>
6.751

> <W>
-60.255

> <W(PB)>
-62.592

> <W(SA)>
2.336

> <Valence>
7.602

> <Coulomb>
-1.744

> <VdW>
0.894

> <VdW6>
-7.110

> <VdW12>
8.004

> <Bond>
0.131

> <Angle>
2.489

> <Pdih>
4.982

> <Idih>
0.001

> <Tether>
0.000

$$$$
VeraChem MOL file


 22 21  0  0  0  0  0  0  0  0999 V2000     
   23.0369   21.1396   22.4695 C   0  0  0  0  0  0  0  0  0  0  0  0
   23.4161   21.2796   23.6153 O   0  5  0  0  0  0  0  0  0  0  0  0
   23.2709   21.9349   21.5812 O   0  0  0  0  0  0  0  0  0  0  0  0
   22.2028   19.9087   22.1324 C   0  0  0  0  0  0  0  0  0  0  0  0
   22.5386   19.0839   22.7725 H   0  0  0  0  0  0  0  0  0  0  0  0
   22.4195   19.6236   21.0959 H   0  0  0  0  0  0  0  0  0  0  0  0
   20.6830   20.1429   22.3156 C   0  0  0  0  0  0  0  0  0  0  0  0
   20.4842   20.4395   23.3549 H   0  0  0  0  0  0  0  0  0  0  0  0
   20.3659   20.9802   21.6785 H   0  0  0  0  0  0  0  0  0  0  0  0
   19.8612   18.8827   21.9681 C   0  0  0  0  0  0  0  0  0  0  0  0
   20.1908   18.0514   22.6048 H   0  0  0  0  0  0  0  0  0  0  0  0
   20.0602   18.5899   20.9282 H   0  0  0  0  0  0  0  0  0  0  0  0
   18.3451   19.1205   22.1563 C   0  0  0  0  0  0  0  0  0  0  0  0
   18.1361   19.3638   23.2071 H   0  0  0  0  0  0  0  0  0  0  0  0
   18.0453   19.9985   21.5680 H   0  0  0  0  0  0  0  0  0  0  0  0
   17.4756   17.9180   21.7213 C   0  0  0  0  0  0  0  0  0  0  0  0
   17.6772   17.6757   20.6687 H   0  0  0  0  0  0  0  0  0  0  0  0
   16.4178   18.2103   21.7751 H   0  0  0  0  0  0  0  0  0  0  0  0
   17.6889   16.6619   22.5936 C   0  0  0  0  0  0  0  0  0  0  0  0
   17.5220   16.8876   23.6549 H   0  0  0  0  0  0  0  0  0  0  0  0
   18.7052   16.2640   22.4814 H   0  0  0  0  0  0  0  0  0  0  0  0
   16.9879   15.8690   22.3024 H   0  0  0  0  0  0  0  0  0  0  0  0
  1  2  1  0  0  0  0
  1  3  2  0  0  0  0
  1  4  1  0  0  0  0
  4  5  1  0  0  0  0
  4  6  1  0  0  0  0
  4  7  1  0  0  0  0
  7  8  1  0  0  0  0
  7  9  1  0  0  0  0
  7 10  1  0  0  0  0
 10 11  1  0  0  0  0
 10 12  1  0  0  0  0
 10 13  1  0  0  0  0
 13 14  1  0  0  0  0
 13 15  1  0  0  0  0
 13 16  1  0  0  0  0
 16 17  1  0  0  0  0
 16 18  1  0  0  0  0
 16 19  1  0  0  0  0
 19 20  1  0  0  0  0
 19 21  1  0  0  0  0
 19 22  1  0  0  0  0
M  END
> <VConfSearch Rank>
724

> <Conf_Id>
38

> <Delta U+W>
-0.439

> <U+W>
-53.598

> <U>
6.751

> <W>
-60.350

> <W(PB)>
-62.659

> <W(SA)>
2.309

> <Valence>
7.602

> <Coulomb>
-1.744

> <VdW>
0.893

> <VdW6>
-7.110

> <VdW12>
8.004

> <Bond>
0.131

> <Angle>
2.489

> <Pdih>
4.981

> <Idih>
0.001

> <Tether>
0.000

$$$$
VeraChem MOL file


 22 21  0  0  0  0  0  0  0  0999 V2000     
   20.1155   18.3828   18.5194 C   0  0  0  0  0  0  0  0  0  0  0  0
   20.8035   19.0451   17.7681 O   0  5  0  0  0  0  0  0  0  0  0  0
   19.1780   17.7036   18.1501 O   0  0  0  0  0  0  0  0  0  0  0  0
   20.4319   18.4242   20.0102 C   0  0  0  0  0  0  0  0  0  0  0  0
   21.5135   18.5641   20.1244 H   0  0  0  0  0  0  0  0  0  0  0  0
   20.1843   17.4429   20.4299 H   0  0  0  0  0  0  0  0  0  0  0  0
   19.6655   19.5484   20.7548 C   0  0  0  0  0  0  0  0  0  0  0  0
   19.8612   20.5027   20.2463 H   0  0  0  0  0  0  0  0  0  0  0  0
   18.5841   19.3712   20.6751 H   0  0  0  0  0  0  0  0  0  0  0  0
   20.0641   19.6911   22.2432 C   0  0  0  0  0  0  0  0  0  0  0  0
   19.5797   20.5928   22.6392 H   0  0  0  0  0  0  0  0  0  0  0  0
   21.1468   19.8598   22.3197 H   0  0  0  0  0  0  0  0  0  0  0  0
   19.6628   18.4704   23.1074 C   0  0  0  0  0  0  0  0  0  0  0  0
   18.5803   18.3007   23.0294 H   0  0  0  0  0  0  0  0  0  0  0  0
   20.1489   17.5685   22.7143 H   0  0  0  0  0  0  0  0  0  0  0  0
   20.0574   18.6153   24.5958 C   0  0  0  0  0  0  0  0  0  0  0  0
   21.1380   18.7967   24.6775 H   0  0  0  0  0  0  0  0  0  0  0  0
   19.8640   17.6611   25.1049 H   0  0  0  0  0  0  0  0  0  0  0  0
   19.2851   19.7329   25.3301 C   0  0  0  0  0  0  0  0  0  0  0  0
   19.5402   20.7240   24.9350 H   0  0  0  0  0  0  0  0  0  0  0  0
   19.5309   19.7295   26.3999 H   0  0  0  0  0  0  0  0  0  0  0  0
   18.2010   19.5910   25.2322 H   0  0  0  0  0  0  0  0  0  0  0  0
  1  2  1  0  0  0  0
  1  3  2  0  0  0  0
  1  4  1  0  0  0  0
  4  5  1  0  0  0  0
  4  6  1  0  0  0  0
  4  7  1  0  0  0  0
  7  8  1  0  0  0  0
  7  9  1  0  0  0  0
  7 10  1  0  0  0  0
 10 11  1  0  0  0  0
 10 12  1  0  0  0  0
 10 13  1  0  0  0  0
 13 14  1  0  0  0  0
 13 15  1  0  0  0  0
 13 16  1  0  0  0  0
 16 17  1  0  0  0  0
 16 18  1  0  0  0  0
 16 19  1  0  0  0  0
 19 20  1  0  0  0  0
 19 21  1  0  0  0  0
 19 22  1  0  0  0  0
M  END
> <VConfSearch Rank>
725

> <Conf_Id>
60

> <Delta U+W>
0.386

> <U+W>
-52.773

> <U>
7.689

> <W>
-60.463

> <W(PB)>
-62.772

> <W(SA)>
2.309

> <Valence>
8.197

> <Coulomb>
-1.561

> <VdW>
1.053

> <VdW6>
-7.737

> <VdW12>
8.790

> <Bond>
0.181

> <Angle>
2.780

> <Pdih>
5.235

> <Idih>
0.001

> <Tether>
0.000

$$$$
VeraChem MOL file


 22 21  0  0  0  0  0  0  0  0999 V2000     
   20.1386   18.3303   18.5216 C   0  0  0  0  0  0  0  0  0  0  0  0
   20.4309   17.1698   18.3111 O   0  5  0  0  0  0  0  0  0  0  0  0
   20.2777   19.2181   17.7036 O   0  0  0  0  0  0  0  0  0  0  0  0
   19.5881   18.6968   19.8953 C   0  0  0  0  0  0  0  0  0  0  0  0
   19.0047   17.8433   20.2581 H   0  0  0  0  0  0  0  0  0  0  0  0
   18.8940   19.5365   19.7704 H   0  0  0  0  0  0  0  0  0  0  0  0
   20.7023   19.0697   20.9077 C   0  0  0  0  0  0  0  0  0  0  0  0
   21.3630   18.2054   21.0621 H   0  0  0  0  0  0  0  0  0  0  0  0
   21.3253   19.8610   20.4681 H   0  0  0  0  0  0  0  0  0  0  0  0
   20.1626   19.5658   22.2705 C   0  0  0  0  0  0  0  0  0  0  0  0
   19.4962   20.4245   22.1117 H   0  0  0  0  0  0  0  0  0  0  0  0
   21.0126   19.9357   22.8578 H   0  0  0  0  0  0  0  0  0  0  0  0
   19.4205   18.4698   23.0742 C   0  0  0  0  0  0  0  0  0  0  0  0
   18.5683   18.1012   22.4894 H   0  0  0  0  0  0  0  0  0  0  0  0
   20.0863   17.6103   23.2312 H   0  0  0  0  0  0  0  0  0  0  0  0
   18.8851   18.9649   24.4382 C   0  0  0  0  0  0  0  0  0  0  0  0
   18.2602   18.1753   24.8777 H   0  0  0  0  0  0  0  0  0  0  0  0
   18.2275   19.8319   24.2864 H   0  0  0  0  0  0  0  0  0  0  0  0
   20.0016   19.3277   25.4413 C   0  0  0  0  0  0  0  0  0  0  0  0
   20.6920   18.4858   25.5824 H   0  0  0  0  0  0  0  0  0  0  0  0
   19.5713   19.5789   26.4194 H   0  0  0  0  0  0  0  0  0  0  0  0
   20.5807   20.1953   25.1017 H   0  0  0  0  0  0  0  0  0  0  0  0
  1  2  1  0  0  0  0
  1  3  2  0  0  0  0
  1  4  1  0  0  0  0
  4  5  1  0  0  0  0
  4  6  1  0  0  0  0
  4  7  1  0  0  0  0
  7  8  1  0  0  0  0
  7  9  1  0  0  0  0
  7 10  1  0  0  0  0
 10 11  1  0  0  0  0
 10 12  1  0  0  0  0
 10 13  1  0  0  0  0
 13 14  1  0  0  0  0
 13 15  1  0  0  0  0
 13 16  1  0  0  0  0
 16 17  1  0  0  0  0
 16 18  1  0  0  0  0
 16 19  1  0  0  0  0
 19 20  1  0  0  0  0
 19 21  1  0  0  0  0
 19 22  1  0  0  0  0
M  END
> <VConfSearch Rank>
726

> <Conf_Id>
28

> <Delta U+W>
0.351

> <U+W>
-52.808

> <U>
7.689

> <W>
-60.498

> <W(PB)>
-62.768

> <W(SA)>
2.270

> <Valence>
8.197

> <Coulomb>
-1.561

> <VdW>
1.053

> <VdW6>
-7.737

> <VdW12>
8.791

> <Bond>
0.181

> <Angle>
2.780

> <Pdih>
5.235

> <Idih>
0.001

> <Tether>
0.000

$$$$
VeraChem MOL file


 22 21  0  0  0  0  0  0  0  0999 V2000     
   23.0977   19.8454   23.9687 C   0  0  0  0  0  0  0  0  0  0  0  0
   23.0007   20.4832   24.9983 O   0  5  0  0  0  0  0  0  0  0  0  0
   23.8834   18.9313   23.8147 O   0  0  0  0  0  0  0  0  0  0  0  0
   22.1686   20.1986   22.8127 C   0  0  0  0  0  0  0  0  0  0  0  0
   22.6997   19.9970   21.8747 H   0  0  0  0  0  0  0  0  0  0  0  0
   21.9738   21.2771   22.8498 H   0  0  0  0  0  0  0  0  0  0  0  0
   20.8351   19.4121   22.8508 C   0  0  0  0  0  0  0  0  0  0  0  0
   21.0570   18.3370   22.8331 H   0  0  0  0  0  0  0  0  0  0  0  0
   20.3199   19.6176   23.7993 H   0  0  0  0  0  0  0  0  0  0  0  0
   19.9149   19.7860   21.6657 C   0  0  0  0  0  0  0  0  0  0  0  0
   20.4090   19.5316   20.7180 H   0  0  0  0  0  0  0  0  0  0  0  0
   19.7684   20.8748   21.6573 H   0  0  0  0  0  0  0  0  0  0  0  0
   18.5267   19.1056   21.7247 C   0  0  0  0  0  0  0  0  0  0  0  0
   18.0306   19.3631   22.6705 H   0  0  0  0  0  0  0  0  0  0  0  0
   17.9012   19.5212   20.9229 H   0  0  0  0  0  0  0  0  0  0  0  0
   18.5859   17.5693   21.5689 C   0  0  0  0  0  0  0  0  0  0  0  0
   19.1419   17.1251   22.4049 H   0  0  0  0  0  0  0  0  0  0  0  0
   19.1285   17.3106   20.6492 H   0  0  0  0  0  0  0  0  0  0  0  0
   17.1741   16.9511   21.5214 C   0  0  0  0  0  0  0  0  0  0  0  0
   16.6008   17.3446   20.6718 H   0  0  0  0  0  0  0  0  0  0  0  0
   16.6181   17.1714   22.4421 H   0  0  0  0  0  0  0  0  0  0  0  0
   17.2330   15.8602   21.4139 H   0  0  0  0  0  0  0  0  0  0  0  0
  1  2  1  0  0  0  0
  1  3  2  0  0  0  0
  1  4  1  0  0  0  0
  4  5  1  0  0  0  0
  4  6  1  0  0  0  0
  4  7  1  0  0  0  0
  7  8  1  0  0  0  0
  7  9  1  0  0  0  0
  7 10  1  0  0  0  0
 10 11  1  0  0  0  0
 10 12  1  0  0  0  0
 10 13  1  0  0  0  0
 13 14  1  0  0  0  0
 13 15  1  0  0  0  0
 13 16  1  0  0  0  0
 16 17  1  0  0  0  0
 16 18  1  0  0  0  0
 16 19  1  0  0  0  0
 19 20  1  0  0  0  0
 19 21  1  0  0  0  0
 19 22  1  0  0  0  0
M  END
> <VConfSearch Rank>
727

> <Conf_Id>
50

> <Delta U+W>
-0.486

> <U+W>
-53.646

> <U>
7.026

> <W>
-60.672

> <W(PB)>
-62.964

> <W(SA)>
2.292

> <Valence>
7.637

> <Coulomb>
-1.488

> <VdW>
0.877

> <VdW6>
-7.165

> <VdW12>
8.043

> <Bond>
0.134

> <Angle>
2.513

> <Pdih>
4.990

> <Idih>
0.001

> <Tether>
0.000

$$$$
VeraChem MOL file


 22 21  0  0  0  0  0  0  0  0999 V2000     
   17.6200   16.2203   23.5370 C   0  0  0  0  0  0  0  0  0  0  0  0
   16.6316   15.9399   22.8882 O   0  5  0  0  0  0  0  0  0  0  0  0
   17.6356   16.2734   24.7508 O   0  0  0  0  0  0  0  0  0  0  0  0
   18.9067   16.5431   22.7855 C   0  0  0  0  0  0  0  0  0  0  0  0
   18.9254   15.9420   21.8685 H   0  0  0  0  0  0  0  0  0  0  0  0
   19.7527   16.2188   23.4034 H   0  0  0  0  0  0  0  0  0  0  0  0
   19.0417   18.0472   22.4424 C   0  0  0  0  0  0  0  0  0  0  0  0
   18.1830   18.3584   21.8316 H   0  0  0  0  0  0  0  0  0  0  0  0
   19.0001   18.6283   23.3731 H   0  0  0  0  0  0  0  0  0  0  0  0
   20.3564   18.3467   21.6854 C   0  0  0  0  0  0  0  0  0  0  0  0
   20.4131   17.6999   20.7992 H   0  0  0  0  0  0  0  0  0  0  0  0
   21.2161   18.0845   22.3172 H   0  0  0  0  0  0  0  0  0  0  0  0
   20.4814   19.8187   21.2260 C   0  0  0  0  0  0  0  0  0  0  0  0
   21.3753   19.9113   20.5940 H   0  0  0  0  0  0  0  0  0  0  0  0
   19.6239   20.0802   20.5909 H   0  0  0  0  0  0  0  0  0  0  0  0
   20.5885   20.8228   22.3959 C   0  0  0  0  0  0  0  0  0  0  0  0
   21.4135   20.5310   23.0604 H   0  0  0  0  0  0  0  0  0  0  0  0
   19.6701   20.8030   22.9971 H   0  0  0  0  0  0  0  0  0  0  0  0
   20.8240   22.2595   21.8879 C   0  0  0  0  0  0  0  0  0  0  0  0
   19.9991   22.5875   21.2419 H   0  0  0  0  0  0  0  0  0  0  0  0
   21.7570   22.3256   21.3131 H   0  0  0  0  0  0  0  0  0  0  0  0
   20.8946   22.9606   22.7297 H   0  0  0  0  0  0  0  0  0  0  0  0
  1  2  1  0  0  0  0
  1  3  2  0  0  0  0
  1  4  1  0  0  0  0
  4  5  1  0  0  0  0
  4  6  1  0  0  0  0
  4  7  1  0  0  0  0
  7  8  1  0  0  0  0
  7  9  1  0  0  0  0
  7 10  1  0  0  0  0
 10 11  1  0  0  0  0
 10 12  1  0  0  0  0
 10 13  1  0  0  0  0
 13 14  1  0  0  0  0
 13 15  1  0  0  0  0
 13 16  1  0  0  0  0
 16 17  1  0  0  0  0
 16 18  1  0  0  0  0
 16 19  1  0  0  0  0
 19 20  1  0  0  0  0
 19 21  1  0  0  0  0
 19 22  1  0  0  0  0
M  END
> <VConfSearch Rank>
728

> <Conf_Id>
51

> <Delta U+W>
-0.517

> <U+W>
-53.677

> <U>
7.026

> <W>
-60.703

> <W(PB)>
-63.007

> <W(SA)>
2.304

> <Valence>
7.638

> <Coulomb>
-1.488

> <VdW>
0.877

> <VdW6>
-7.165

> <VdW12>
8.042

> <Bond>
0.134

> <Angle>
2.513

> <Pdih>
4.990

> <Idih>
0.001

> <Tether>
0.000

$$$$
VeraChem MOL file


 22 21  0  0  0  0  0  0  0  0999 V2000     
   19.2545   21.5941   20.3330 C   0  0  0  0  0  0  0  0  0  0  0  0
   20.2307   22.2712   20.0774 O   0  5  0  0  0  0  0  0  0  0  0  0
   18.5945   21.0204   19.4892 O   0  0  0  0  0  0  0  0  0  0  0  0
   18.8245   21.4746   21.7925 C   0  0  0  0  0  0  0  0  0  0  0  0
   17.7794   21.1437   21.8237 H   0  0  0  0  0  0  0  0  0  0  0  0
   18.8517   22.4814   22.2258 H   0  0  0  0  0  0  0  0  0  0  0  0
   19.7128   20.5236   22.6359 C   0  0  0  0  0  0  0  0  0  0  0  0
   20.7598   20.8513   22.5720 H   0  0  0  0  0  0  0  0  0  0  0  0
   19.4200   20.6050   23.6915 H   0  0  0  0  0  0  0  0  0  0  0  0
   19.5976   19.0494   22.1875 C   0  0  0  0  0  0  0  0  0  0  0  0
   19.9054   18.9570   21.1368 H   0  0  0  0  0  0  0  0  0  0  0  0
   18.5475   18.7307   22.2407 H   0  0  0  0  0  0  0  0  0  0  0  0
   20.4651   18.1169   23.0601 C   0  0  0  0  0  0  0  0  0  0  0  0
   21.5150   18.4362   23.0063 H   0  0  0  0  0  0  0  0  0  0  0  0
   20.1573   18.2054   24.1110 H   0  0  0  0  0  0  0  0  0  0  0  0
   20.3511   16.6446   22.6124 C   0  0  0  0  0  0  0  0  0  0  0  0
   20.6601   16.5519   21.5619 H   0  0  0  0  0  0  0  0  0  0  0  0
   19.3024   16.3211   22.6664 H   0  0  0  0  0  0  0  0  0  0  0  0
   21.2193   15.7166   23.4855 C   0  0  0  0  0  0  0  0  0  0  0  0
   22.2787   15.9983   23.4252 H   0  0  0  0  0  0  0  0  0  0  0  0
   21.1263   14.6744   23.1534 H   0  0  0  0  0  0  0  0  0  0  0  0
   20.9108   15.7657   24.5381 H   0  0  0  0  0  0  0  0  0  0  0  0
  1  2  1  0  0  0  0
  1  3  2  0  0  0  0
  1  4  1  0  0  0  0
  4  5  1  0  0  0  0
  4  6  1  0  0  0  0
  4  7  1  0  0  0  0
  7  8  1  0  0  0  0
  7  9  1  0  0  0  0
  7 10  1  0  0  0  0
 10 11  1  0  0  0  0
 10 12  1  0  0  0  0
 10 13  1  0  0  0  0
 13 14  1  0  0  0  0
 13 15  1  0  0  0  0
 13 16  1  0  0  0  0
 16 17  1  0  0  0  0
 16 18  1  0  0  0  0
 16 19  1  0  0  0  0
 19 20  1  0  0  0  0
 19 21  1  0  0  0  0
 19 22  1  0  0  0  0
M  END
> <VConfSearch Rank>
729

> <Conf_Id>
43

> <Delta U+W>
-0.129

> <U+W>
-53.289

> <U>
7.937

> <W>
-61.225

> <W(PB)>
-63.523

> <W(SA)>
2.297

> <Valence>
7.358

> <Coulomb>
-0.022

> <VdW>
0.601

> <VdW6>
-7.363

> <VdW12>
7.964

> <Bond>
0.121

> <Angle>
2.425

> <Pdih>
4.811

> <Idih>
0.000

> <Tether>
0.000

$$$$
VeraChem MOL file


 22 21  0  0  0  0  0  0  0  0999 V2000     
   20.9521   16.2702   20.7366 C   0  0  0  0  0  0  0  0  0  0  0  0
   22.1158   16.0452   21.0052 O   0  5  0  0  0  0  0  0  0  0  0  0
   20.5567   16.5173   19.6144 O   0  0  0  0  0  0  0  0  0  0  0  0
   19.9304   16.2212   21.8692 C   0  0  0  0  0  0  0  0  0  0  0  0
   20.1337   15.3171   22.4553 H   0  0  0  0  0  0  0  0  0  0  0  0
   18.9309   16.0995   21.4343 H   0  0  0  0  0  0  0  0  0  0  0  0
   19.9617   17.4604   22.8011 C   0  0  0  0  0  0  0  0  0  0  0  0
   19.2986   17.2789   23.6578 H   0  0  0  0  0  0  0  0  0  0  0  0
   20.9754   17.5853   23.2066 H   0  0  0  0  0  0  0  0  0  0  0  0
   19.5222   18.7557   22.0822 C   0  0  0  0  0  0  0  0  0  0  0  0
   18.5138   18.6211   21.6675 H   0  0  0  0  0  0  0  0  0  0  0  0
   20.1917   18.9534   21.2336 H   0  0  0  0  0  0  0  0  0  0  0  0
   19.5306   19.9698   23.0358 C   0  0  0  0  0  0  0  0  0  0  0  0
   18.8597   19.7757   23.8839 H   0  0  0  0  0  0  0  0  0  0  0  0
   20.5394   20.1037   23.4501 H   0  0  0  0  0  0  0  0  0  0  0  0
   19.0926   21.2638   22.3185 C   0  0  0  0  0  0  0  0  0  0  0  0
   18.0832   21.1342   21.9041 H   0  0  0  0  0  0  0  0  0  0  0  0
   19.7627   21.4622   21.4705 H   0  0  0  0  0  0  0  0  0  0  0  0
   19.1029   22.4742   23.2737 C   0  0  0  0  0  0  0  0  0  0  0  0
   18.4165   22.3158   24.1158 H   0  0  0  0  0  0  0  0  0  0  0  0
   18.7891   23.3850   22.7474 H   0  0  0  0  0  0  0  0  0  0  0  0
   20.1087   22.6463   23.6788 H   0  0  0  0  0  0  0  0  0  0  0  0
  1  2  1  0  0  0  0
  1  3  2  0  0  0  0
  1  4  1  0  0  0  0
  4  5  1  0  0  0  0
  4  6  1  0  0  0  0
  4  7  1  0  0  0  0
  7  8  1  0  0  0  0
  7  9  1  0  0  0  0
  7 10  1  0  0  0  0
 10 11  1  0  0  0  0
 10 12  1  0  0  0  0
 10 13  1  0  0  0  0
 13 14  1  0  0  0  0
 13 15  1  0  0  0  0
 13 16  1  0  0  0  0
 16 17  1  0  0  0  0
 16 18  1  0  0  0  0
 16 19  1  0  0  0  0
 19 20  1  0  0  0  0
 19 21  1  0  0  0  0
 19 22  1  0  0  0  0
M  END
> <VConfSearch Rank>
730

> <Conf_Id>
44

> <Delta U+W>
-0.155

> <U+W>
-53.314

> <U>
7.937

> <W>
-61.252

> <W(PB)>
-63.556

> <W(SA)>
2.304

> <Valence>
7.358

> <Coulomb>
-0.021

> <VdW>
0.600

> <VdW6>
-7.363

> <VdW12>
7.964

> <Bond>
0.121

> <Angle>
2.425

> <Pdih>
4.811

> <Idih>
0.001

> <Tether>
0.000

$$$$
VeraChem MOL file


 22 21  0  0  0  0  0  0  0  0999 V2000     
   22.2601   18.6900   19.8429 C   0  0  0  0  0  0  0  0  0  0  0  0
   23.2870   18.2423   20.3140 O   0  5  0  0  0  0  0  0  0  0  0  0
   22.2183   19.6830   19.1436 O   0  0  0  0  0  0  0  0  0  0  0  0
   20.9554   17.9523   20.1308 C   0  0  0  0  0  0  0  0  0  0  0  0
   21.1423   16.8836   19.9730 H   0  0  0  0  0  0  0  0  0  0  0  0
   20.2088   18.2571   19.3874 H   0  0  0  0  0  0  0  0  0  0  0  0
   20.4056   18.1751   21.5639 C   0  0  0  0  0  0  0  0  0  0  0  0
   19.5632   17.4902   21.7231 H   0  0  0  0  0  0  0  0  0  0  0  0
   21.1785   17.9037   22.2963 H   0  0  0  0  0  0  0  0  0  0  0  0
   19.9447   19.6331   21.8031 C   0  0  0  0  0  0  0  0  0  0  0  0
   19.1425   19.8888   21.0975 H   0  0  0  0  0  0  0  0  0  0  0  0
   20.7779   20.3149   21.5840 H   0  0  0  0  0  0  0  0  0  0  0  0
   19.4669   19.8992   23.2504 C   0  0  0  0  0  0  0  0  0  0  0  0
   20.2693   19.6432   23.9557 H   0  0  0  0  0  0  0  0  0  0  0  0
   19.2863   20.9769   23.3638 H   0  0  0  0  0  0  0  0  0  0  0  0
   18.1782   19.1335   23.6263 C   0  0  0  0  0  0  0  0  0  0  0  0
   18.3589   18.0510   23.5979 H   0  0  0  0  0  0  0  0  0  0  0  0
   17.3917   19.3472   22.8894 H   0  0  0  0  0  0  0  0  0  0  0  0
   17.6804   19.5213   25.0333 C   0  0  0  0  0  0  0  0  0  0  0  0
   18.4380   19.2927   25.7943 H   0  0  0  0  0  0  0  0  0  0  0  0
   16.7673   18.9671   25.2868 H   0  0  0  0  0  0  0  0  0  0  0  0
   17.4519   20.5937   25.0879 H   0  0  0  0  0  0  0  0  0  0  0  0
  1  2  1  0  0  0  0
  1  3  2  0  0  0  0
  1  4  1  0  0  0  0
  4  5  1  0  0  0  0
  4  6  1  0  0  0  0
  4  7  1  0  0  0  0
  7  8  1  0  0  0  0
  7  9  1  0  0  0  0
  7 10  1  0  0  0  0
 10 11  1  0  0  0  0
 10 12  1  0  0  0  0
 10 13  1  0  0  0  0
 13 14  1  0  0  0  0
 13 15  1  0  0  0  0
 13 16  1  0  0  0  0
 16 17  1  0  0  0  0
 16 18  1  0  0  0  0
 16 19  1  0  0  0  0
 19 20  1  0  0  0  0
 19 21  1  0  0  0  0
 19 22  1  0  0  0  0
M  END
> <VConfSearch Rank>
731

> <Conf_Id>
53

> <Delta U+W>
0.723

> <U+W>
-52.436

> <U>
8.587

> <W>
-61.022

> <W(PB)>
-63.285

> <W(SA)>
2.263

> <Valence>
7.933

> <Coulomb>
-0.124

> <VdW>
0.778

> <VdW6>
-7.981

> <VdW12>
8.759

> <Bond>
0.160

> <Angle>
2.698

> <Pdih>
5.074

> <Idih>
0.001

> <Tether>
0.000

$$$$
VeraChem MOL file


 22 21  0  0  0  0  0  0  0  0999 V2000     
   22.0577   20.9402   23.7923 C   0  0  0  0  0  0  0  0  0  0  0  0
   22.7799   20.2537   24.4879 O   0  5  0  0  0  0  0  0  0  0  0  0
   22.2279   22.1302   23.6151 O   0  0  0  0  0  0  0  0  0  0  0  0
   20.8868   20.2672   23.0851 C   0  0  0  0  0  0  0  0  0  0  0  0
   20.0804   21.0034   22.9847 H   0  0  0  0  0  0  0  0  0  0  0  0
   20.5231   19.4650   23.7369 H   0  0  0  0  0  0  0  0  0  0  0  0
   21.2709   19.6996   21.6954 C   0  0  0  0  0  0  0  0  0  0  0  0
   21.7582   20.4940   21.1132 H   0  0  0  0  0  0  0  0  0  0  0  0
   22.0220   18.9079   21.8236 H   0  0  0  0  0  0  0  0  0  0  0  0
   20.0750   19.1531   20.8758 C   0  0  0  0  0  0  0  0  0  0  0  0
   20.4637   18.8271   19.9013 H   0  0  0  0  0  0  0  0  0  0  0  0
   19.3653   19.9629   20.6578 H   0  0  0  0  0  0  0  0  0  0  0  0
   19.3396   17.9546   21.5273 C   0  0  0  0  0  0  0  0  0  0  0  0
   19.0269   17.2642   20.7320 H   0  0  0  0  0  0  0  0  0  0  0  0
   20.0313   17.3900   22.1673 H   0  0  0  0  0  0  0  0  0  0  0  0
   18.0819   18.3679   22.3262 C   0  0  0  0  0  0  0  0  0  0  0  0
   17.3751   18.8806   21.6593 H   0  0  0  0  0  0  0  0  0  0  0  0
   18.3432   19.0828   23.1155 H   0  0  0  0  0  0  0  0  0  0  0  0
   17.3879   17.1456   22.9600 C   0  0  0  0  0  0  0  0  0  0  0  0
   17.0764   16.4274   22.1902 H   0  0  0  0  0  0  0  0  0  0  0  0
   16.4939   17.4542   23.5172 H   0  0  0  0  0  0  0  0  0  0  0  0
   18.0611   16.6304   23.6576 H   0  0  0  0  0  0  0  0  0  0  0  0
  1  2  1  0  0  0  0
  1  3  2  0  0  0  0
  1  4  1  0  0  0  0
  4  5  1  0  0  0  0
  4  6  1  0  0  0  0
  4  7  1  0  0  0  0
  7  8  1  0  0  0  0
  7  9  1  0  0  0  0
  7 10  1  0  0  0  0
 10 11  1  0  0  0  0
 10 12  1  0  0  0  0
 10 13  1  0  0  0  0
 13 14  1  0  0  0  0
 13 15  1  0  0  0  0
 13 16  1  0  0  0  0
 16 17  1  0  0  0  0
 16 18  1  0  0  0  0
 16 19  1  0  0  0  0
 19 20  1  0  0  0  0
 19 21  1  0  0  0  0
 19 22  1  0  0  0  0
M  END
> <VConfSearch Rank>
732

> <Conf_Id>
5

> <Delta U+W>
2.167

> <U+W>
-50.993

> <U>
10.045

> <W>
-61.037

> <W(PB)>
-63.303

> <W(SA)>
2.266

> <Valence>
10.100

> <Coulomb>
-0.883

> <VdW>
0.828

> <VdW6>
-8.177

> <VdW12>
9.005

> <Bond>
0.182

> <Angle>
2.988

> <Pdih>
6.930

> <Idih>
0.001

> <Tether>
0.000

$$$$
VeraChem MOL file


 22 21  0  0  0  0  0  0  0  0999 V2000     
   20.6515   21.9273   23.5467 C   0  0  0  0  0  0  0  0  0  0  0  0
   21.8605   22.0493   23.5581 O   0  5  0  0  0  0  0  0  0  0  0  0
   19.8870   22.7640   23.9848 O   0  0  0  0  0  0  0  0  0  0  0  0
   20.0621   20.6443   22.9720 C   0  0  0  0  0  0  0  0  0  0  0  0
   20.7161   20.3157   22.1565 H   0  0  0  0  0  0  0  0  0  0  0  0
   19.0846   20.8832   22.5365 H   0  0  0  0  0  0  0  0  0  0  0  0
   19.9176   19.5228   24.0315 C   0  0  0  0  0  0  0  0  0  0  0  0
   20.9145   19.2415   24.3980 H   0  0  0  0  0  0  0  0  0  0  0  0
   19.3741   19.9250   24.8977 H   0  0  0  0  0  0  0  0  0  0  0  0
   19.1740   18.2602   23.5280 C   0  0  0  0  0  0  0  0  0  0  0  0
   18.1417   18.5152   23.2518 H   0  0  0  0  0  0  0  0  0  0  0  0
   19.0930   17.5648   24.3746 H   0  0  0  0  0  0  0  0  0  0  0  0
   19.8755   17.5200   22.3611 C   0  0  0  0  0  0  0  0  0  0  0  0
   20.9600   17.6906   22.4035 H   0  0  0  0  0  0  0  0  0  0  0  0
   19.7309   16.4395   22.4975 H   0  0  0  0  0  0  0  0  0  0  0  0
   19.3231   17.9065   20.9697 C   0  0  0  0  0  0  0  0  0  0  0  0
   19.4201   18.9857   20.8016 H   0  0  0  0  0  0  0  0  0  0  0  0
   18.2497   17.6766   20.9236 H   0  0  0  0  0  0  0  0  0  0  0  0
   20.0539   17.1510   19.8416 C   0  0  0  0  0  0  0  0  0  0  0  0
   21.1261   17.3868   19.8422 H   0  0  0  0  0  0  0  0  0  0  0  0
   19.6460   17.4305   18.8615 H   0  0  0  0  0  0  0  0  0  0  0  0
   19.9413   16.0652   19.9585 H   0  0  0  0  0  0  0  0  0  0  0  0
  1  2  1  0  0  0  0
  1  3  2  0  0  0  0
  1  4  1  0  0  0  0
  4  5  1  0  0  0  0
  4  6  1  0  0  0  0
  4  7  1  0  0  0  0
  7  8  1  0  0  0  0
  7  9  1  0  0  0  0
  7 10  1  0  0  0  0
 10 11  1  0  0  0  0
 10 12  1  0  0  0  0
 10 13  1  0  0  0  0
 13 14  1  0  0  0  0
 13 15  1  0  0  0  0
 13 16  1  0  0  0  0
 16 17  1  0  0  0  0
 16 18  1  0  0  0  0
 16 19  1  0  0  0  0
 19 20  1  0  0  0  0
 19 21  1  0  0  0  0
 19 22  1  0  0  0  0
M  END
> <VConfSearch Rank>
733

> <Conf_Id>
6

> <Delta U+W>
2.118

> <U+W>
-51.042

> <U>
10.045

> <W>
-61.086

> <W(PB)>
-63.356

> <W(SA)>
2.270

> <Valence>
10.100

> <Coulomb>
-0.883

> <VdW>
0.828

> <VdW6>
-8.177

> <VdW12>
9.004

> <Bond>
0.182

> <Angle>
2.988

> <Pdih>
6.930

> <Idih>
0.001

> <Tether>
0.000

$$$$
VeraChem MOL file


 22 21  0  0  0  0  0  0  0  0999 V2000     
   18.2623   16.9369   21.4762 C   0  0  0  0  0  0  0  0  0  0  0  0
   17.6587   16.3862   22.3761 O   0  5  0  0  0  0  0  0  0  0  0  0
   19.2085   16.4373   20.8998 O   0  0  0  0  0  0  0  0  0  0  0  0
   17.7634   18.2983   20.9952 C   0  0  0  0  0  0  0  0  0  0  0  0
   16.7541   18.1345   20.6003 H   0  0  0  0  0  0  0  0  0  0  0  0
   18.3813   18.6264   20.1505 H   0  0  0  0  0  0  0  0  0  0  0  0
   17.7068   19.4069   22.0836 C   0  0  0  0  0  0  0  0  0  0  0  0
   17.0150   20.1867   21.7374 H   0  0  0  0  0  0  0  0  0  0  0  0
   17.2690   19.0033   23.0072 H   0  0  0  0  0  0  0  0  0  0  0  0
   19.0649   20.0847   22.3917 C   0  0  0  0  0  0  0  0  0  0  0  0
   18.8766   20.9440   23.0499 H   0  0  0  0  0  0  0  0  0  0  0  0
   19.4927   20.4931   21.4660 H   0  0  0  0  0  0  0  0  0  0  0  0
   20.0937   19.1540   23.0729 C   0  0  0  0  0  0  0  0  0  0  0  0
   19.6313   18.6661   23.9419 H   0  0  0  0  0  0  0  0  0  0  0  0
   20.3936   18.3584   22.3793 H   0  0  0  0  0  0  0  0  0  0  0  0
   21.3519   19.9265   23.5223 C   0  0  0  0  0  0  0  0  0  0  0  0
   21.0681   20.7220   24.2251 H   0  0  0  0  0  0  0  0  0  0  0  0
   21.8146   20.4167   22.6545 H   0  0  0  0  0  0  0  0  0  0  0  0
   22.3808   18.9946   24.1933 C   0  0  0  0  0  0  0  0  0  0  0  0
   21.9536   18.5145   25.0835 H   0  0  0  0  0  0  0  0  0  0  0  0
   23.2689   19.5592   24.5056 H   0  0  0  0  0  0  0  0  0  0  0  0
   22.7058   18.2062   23.5016 H   0  0  0  0  0  0  0  0  0  0  0  0
  1  2  1  0  0  0  0
  1  3  2  0  0  0  0
  1  4  1  0  0  0  0
  4  5  1  0  0  0  0
  4  6  1  0  0  0  0
  4  7  1  0  0  0  0
  7  8  1  0  0  0  0
  7  9  1  0  0  0  0
  7 10  1  0  0  0  0
 10 11  1  0  0  0  0
 10 12  1  0  0  0  0
 10 13  1  0  0  0  0
 13 14  1  0  0  0  0
 13 15  1  0  0  0  0
 13 16  1  0  0  0  0
 16 17  1  0  0  0  0
 16 18  1  0  0  0  0
 16 19  1  0  0  0  0
 19 20  1  0  0  0  0
 19 21  1  0  0  0  0
 19 22  1  0  0  0  0
M  END
> <VConfSearch Rank>
734

> <Conf_Id>
8

> <Delta U+W>
1.886

> <U+W>
-51.274

> <U>
11.237

> <W>
-62.510

> <W(PB)>
-64.777

> <W(SA)>
2.267

> <Valence>
9.029

> <Coulomb>
1.667

> <VdW>
0.540

> <VdW6>
-8.825

> <VdW12>
9.365

> <Bond>
0.186

> <Angle>
3.195

> <Pdih>
5.642

> <Idih>
0.007

> <Tether>
0.000

$$$$
VeraChem MOL file


 22 21  0  0  0  0  0  0  0  0999 V2000     
   17.5175   20.3307   20.7359 C   0  0  0  0  0  0  0  0  0  0  0  0
   18.3420   21.1455   20.3711 O   0  5  0  0  0  0  0  0  0  0  0  0
   16.4017   20.6276   21.1157 O   0  0  0  0  0  0  0  0  0  0  0  0
   17.8905   18.8517   20.6868 C   0  0  0  0  0  0  0  0  0  0  0  0
   18.7918   18.7367   20.0743 H   0  0  0  0  0  0  0  0  0  0  0  0
   17.0864   18.3309   20.1539 H   0  0  0  0  0  0  0  0  0  0  0  0
   18.0868   18.1990   22.0827 C   0  0  0  0  0  0  0  0  0  0  0  0
   17.1397   18.2636   22.6362 H   0  0  0  0  0  0  0  0  0  0  0  0
   18.2947   17.1282   21.9540 H   0  0  0  0  0  0  0  0  0  0  0  0
   19.2076   18.8362   22.9409 C   0  0  0  0  0  0  0  0  0  0  0  0
   19.1885   18.3606   23.9295 H   0  0  0  0  0  0  0  0  0  0  0  0
   18.9896   19.9004   23.1049 H   0  0  0  0  0  0  0  0  0  0  0  0
   20.6190   18.6847   22.3223 C   0  0  0  0  0  0  0  0  0  0  0  0
   20.8329   17.6231   22.1386 H   0  0  0  0  0  0  0  0  0  0  0  0
   20.6415   19.1834   21.3447 H   0  0  0  0  0  0  0  0  0  0  0  0
   21.7406   19.2958   23.1944 C   0  0  0  0  0  0  0  0  0  0  0  0
   21.5209   20.3541   23.3927 H   0  0  0  0  0  0  0  0  0  0  0  0
   22.6792   19.2760   22.6237 H   0  0  0  0  0  0  0  0  0  0  0  0
   21.9574   18.5495   24.5289 C   0  0  0  0  0  0  0  0  0  0  0  0
   21.0863   18.6446   25.1888 H   0  0  0  0  0  0  0  0  0  0  0  0
   22.8236   18.9618   25.0622 H   0  0  0  0  0  0  0  0  0  0  0  0
   22.1443   17.4816   24.3560 H   0  0  0  0  0  0  0  0  0  0  0  0
  1  2  1  0  0  0  0
  1  3  2  0  0  0  0
  1  4  1  0  0  0  0
  4  5  1  0  0  0  0
  4  6  1  0  0  0  0
  4  7  1  0  0  0  0
  7  8  1  0  0  0  0
  7  9  1  0  0  0  0
  7 10  1  0  0  0  0
 10 11  1  0  0  0  0
 10 12  1  0  0  0  0
 10 13  1  0  0  0  0
 13 14  1  0  0  0  0
 13 15  1  0  0  0  0
 13 16  1  0  0  0  0
 16 17  1  0  0  0  0
 16 18  1  0  0  0  0
 16 19  1  0  0  0  0
 19 20  1  0  0  0  0
 19 21  1  0  0  0  0
 19 22  1  0  0  0  0
M  END
> <VConfSearch Rank>
735

> <Conf_Id>
93

> <Delta U+W>
1.836

> <U+W>
-51.323

> <U>
10.427

> <W>
-61.751

> <W(PB)>
-63.980

> <W(SA)>
2.230

> <Valence>
8.446

> <Coulomb>
1.306

> <VdW>
0.676

> <VdW6>
-8.928

> <VdW12>
9.604

> <Bond>
0.209

> <Angle>
3.066

> <Pdih>
5.170

> <Idih>
0.001

> <Tether>
0.000

$$$$
VeraChem MOL file


 22 21  0  0  0  0  0  0  0  0999 V2000     
   22.2683   20.8482   22.5950 C   0  0  0  0  0  0  0  0  0  0  0  0
   23.4069   20.4278   22.5300 O   0  5  0  0  0  0  0  0  0  0  0  0
   21.8165   21.4165   23.5695 O   0  0  0  0  0  0  0  0  0  0  0  0
   21.3684   20.6784   21.3741 C   0  0  0  0  0  0  0  0  0  0  0  0
   21.9277   21.0429   20.5046 H   0  0  0  0  0  0  0  0  0  0  0  0
   20.5010   21.3392   21.4822 H   0  0  0  0  0  0  0  0  0  0  0  0
   20.9166   19.2147   21.1161 C   0  0  0  0  0  0  0  0  0  0  0  0
   20.3242   19.1780   20.1919 H   0  0  0  0  0  0  0  0  0  0  0  0
   21.8085   18.5995   20.9338 H   0  0  0  0  0  0  0  0  0  0  0  0
   20.1018   18.5784   22.2694 C   0  0  0  0  0  0  0  0  0  0  0  0
   20.7005   18.5785   23.1905 H   0  0  0  0  0  0  0  0  0  0  0  0
   19.9231   17.5257   22.0166 H   0  0  0  0  0  0  0  0  0  0  0  0
   18.7483   19.2837   22.5299 C   0  0  0  0  0  0  0  0  0  0  0  0
   18.9323   20.3298   22.8071 H   0  0  0  0  0  0  0  0  0  0  0  0
   18.1547   19.3032   21.6059 H   0  0  0  0  0  0  0  0  0  0  0  0
   17.9227   18.6293   23.6623 C   0  0  0  0  0  0  0  0  0  0  0  0
   17.0559   19.2686   23.8791 H   0  0  0  0  0  0  0  0  0  0  0  0
   18.5201   18.5944   24.5838 H   0  0  0  0  0  0  0  0  0  0  0  0
   17.4173   17.2121   23.3145 C   0  0  0  0  0  0  0  0  0  0  0  0
   18.2482   16.5040   23.2078 H   0  0  0  0  0  0  0  0  0  0  0  0
   16.8462   17.2177   22.3770 H   0  0  0  0  0  0  0  0  0  0  0  0
   16.7599   16.8342   24.1081 H   0  0  0  0  0  0  0  0  0  0  0  0
  1  2  1  0  0  0  0
  1  3  2  0  0  0  0
  1  4  1  0  0  0  0
  4  5  1  0  0  0  0
  4  6  1  0  0  0  0
  4  7  1  0  0  0  0
  7  8  1  0  0  0  0
  7  9  1  0  0  0  0
  7 10  1  0  0  0  0
 10 11  1  0  0  0  0
 10 12  1  0  0  0  0
 10 13  1  0  0  0  0
 13 14  1  0  0  0  0
 13 15  1  0  0  0  0
 13 16  1  0  0  0  0
 16 17  1  0  0  0  0
 16 18  1  0  0  0  0
 16 19  1  0  0  0  0
 19 20  1  0  0  0  0
 19 21  1  0  0  0  0
 19 22  1  0  0  0  0
M  END
> <VConfSearch Rank>
736

> <Conf_Id>
70

> <Delta U+W>
1.803

> <U+W>
-51.356

> <U>
10.428

> <W>
-61.784

> <W(PB)>
-64.014

> <W(SA)>
2.230

> <Valence>
8.445

> <Coulomb>
1.306

> <VdW>
0.676

> <VdW6>
-8.929

> <VdW12>
9.605

> <Bond>
0.209

> <Angle>
3.066

> <Pdih>
5.170

> <Idih>
0.001

> <Tether>
0.000

$$$$
VeraChem MOL file


 22 21  0  0  0  0  0  0  0  0999 V2000     
   21.4143   18.2839   19.6354 C   0  0  0  0  0  0  0  0  0  0  0  0
   22.4614   17.8376   20.0612 O   0  5  0  0  0  0  0  0  0  0  0  0
   21.3461   19.2299   18.8756 O   0  0  0  0  0  0  0  0  0  0  0  0
   20.1163   17.6044   20.0628 C   0  0  0  0  0  0  0  0  0  0  0  0
   20.2693   16.5219   19.9791 H   0  0  0  0  0  0  0  0  0  0  0  0
   19.3296   17.8700   19.3464 H   0  0  0  0  0  0  0  0  0  0  0  0
   19.6683   17.9540   21.5057 C   0  0  0  0  0  0  0  0  0  0  0  0
   18.8078   17.3264   21.7740 H   0  0  0  0  0  0  0  0  0  0  0  0
   20.4781   17.6975   22.2014 H   0  0  0  0  0  0  0  0  0  0  0  0
   19.2816   19.4443   21.6606 C   0  0  0  0  0  0  0  0  0  0  0  0
   18.5340   19.7002   20.8975 H   0  0  0  0  0  0  0  0  0  0  0  0
   20.1560   20.0793   21.4618 H   0  0  0  0  0  0  0  0  0  0  0  0
   18.7006   19.7886   23.0526 C   0  0  0  0  0  0  0  0  0  0  0  0
   18.3422   20.8269   23.0328 H   0  0  0  0  0  0  0  0  0  0  0  0
   17.8215   19.1603   23.2505 H   0  0  0  0  0  0  0  0  0  0  0  0
   19.7221   19.6325   24.2016 C   0  0  0  0  0  0  0  0  0  0  0  0
   20.6237   20.2195   23.9781 H   0  0  0  0  0  0  0  0  0  0  0  0
   20.0359   18.5841   24.2892 H   0  0  0  0  0  0  0  0  0  0  0  0
   19.1318   20.0935   25.5495 C   0  0  0  0  0  0  0  0  0  0  0  0
   18.8417   21.1517   25.5105 H   0  0  0  0  0  0  0  0  0  0  0  0
   19.8677   19.9736   26.3552 H   0  0  0  0  0  0  0  0  0  0  0  0
   18.2435   19.5037   25.8111 H   0  0  0  0  0  0  0  0  0  0  0  0
  1  2  1  0  0  0  0
  1  3  2  0  0  0  0
  1  4  1  0  0  0  0
  4  5  1  0  0  0  0
  4  6  1  0  0  0  0
  4  7  1  0  0  0  0
  7  8  1  0  0  0  0
  7  9  1  0  0  0  0
  7 10  1  0  0  0  0
 10 11  1  0  0  0  0
 10 12  1  0  0  0  0
 10 13  1  0  0  0  0
 13 14  1  0  0  0  0
 13 15  1  0  0  0  0
 13 16  1  0  0  0  0
 16 17  1  0  0  0  0
 16 18  1  0  0  0  0
 16 19  1  0  0  0  0
 19 20  1  0  0  0  0
 19 21  1  0  0  0  0
 19 22  1  0  0  0  0
M  END
> <VConfSearch Rank>
737

> <Conf_Id>
85

> <Delta U+W>
0.707

> <U+W>
-52.452

> <U>
8.925

> <W>
-61.378

> <W(PB)>
-63.661

> <W(SA)>
2.283

> <Valence>
7.881

> <Coulomb>
0.349

> <VdW>
0.695

> <VdW6>
-8.049

> <VdW12>
8.743

> <Bond>
0.156

> <Angle>
2.660

> <Pdih>
5.064

> <Idih>
0.001

> <Tether>
0.000

$$$$
VeraChem MOL file


 22 21  0  0  0  0  0  0  0  0999 V2000     
   20.4935   15.9486   23.8485 C   0  0  0  0  0  0  0  0  0  0  0  0
   21.4393   15.3724   23.3481 O   0  5  0  0  0  0  0  0  0  0  0  0
   20.3464   16.0834   25.0473 O   0  0  0  0  0  0  0  0  0  0  0  0
   19.4192   16.5143   22.9238 C   0  0  0  0  0  0  0  0  0  0  0  0
   18.4463   16.2214   23.3358 H   0  0  0  0  0  0  0  0  0  0  0  0
   19.5081   16.0289   21.9443 H   0  0  0  0  0  0  0  0  0  0  0  0
   19.4696   18.0562   22.7638 C   0  0  0  0  0  0  0  0  0  0  0  0
   18.5741   18.3761   22.2163 H   0  0  0  0  0  0  0  0  0  0  0  0
   19.4270   18.5277   23.7553 H   0  0  0  0  0  0  0  0  0  0  0  0
   20.7300   18.5351   22.0067 C   0  0  0  0  0  0  0  0  0  0  0  0
   20.7199   18.1271   20.9869 H   0  0  0  0  0  0  0  0  0  0  0  0
   21.6229   18.1202   22.4940 H   0  0  0  0  0  0  0  0  0  0  0  0
   20.8878   20.0752   21.9442 C   0  0  0  0  0  0  0  0  0  0  0  0
   20.9923   20.4844   22.9583 H   0  0  0  0  0  0  0  0  0  0  0  0
   21.8387   20.2887   21.4372 H   0  0  0  0  0  0  0  0  0  0  0  0
   19.7592   20.8130   21.1813 C   0  0  0  0  0  0  0  0  0  0  0  0
   19.3165   20.1524   20.4231 H   0  0  0  0  0  0  0  0  0  0  0  0
   20.2001   21.6560   20.6316 H   0  0  0  0  0  0  0  0  0  0  0  0
   18.6604   21.3730   22.1119 C   0  0  0  0  0  0  0  0  0  0  0  0
   18.1654   20.5796   22.6832 H   0  0  0  0  0  0  0  0  0  0  0  0
   17.8916   21.8947   21.5275 H   0  0  0  0  0  0  0  0  0  0  0  0
   19.0833   22.0909   22.8266 H   0  0  0  0  0  0  0  0  0  0  0  0
  1  2  1  0  0  0  0
  1  3  2  0  0  0  0
  1  4  1  0  0  0  0
  4  5  1  0  0  0  0
  4  6  1  0  0  0  0
  4  7  1  0  0  0  0
  7  8  1  0  0  0  0
  7  9  1  0  0  0  0
  7 10  1  0  0  0  0
 10 11  1  0  0  0  0
 10 12  1  0  0  0  0
 10 13  1  0  0  0  0
 13 14  1  0  0  0  0
 13 15  1  0  0  0  0
 13 16  1  0  0  0  0
 16 17  1  0  0  0  0
 16 18  1  0  0  0  0
 16 19  1  0  0  0  0
 19 20  1  0  0  0  0
 19 21  1  0  0  0  0
 19 22  1  0  0  0  0
M  END
> <VConfSearch Rank>
738

> <Conf_Id>
82

> <Delta U+W>
3.438

> <U+W>
-49.721

> <U>
11.773

> <W>
-61.495

> <W(PB)>
-63.749

> <W(SA)>
2.254

> <Valence>
10.419

> <Coulomb>
0.565

> <VdW>
0.789

> <VdW6>
-8.847

> <VdW12>
9.636

> <Bond>
0.200

> <Angle>
3.187

> <Pdih>
7.032

> <Idih>
0.001

> <Tether>
0.000

$$$$
VeraChem MOL file


 22 21  0  0  0  0  0  0  0  0999 V2000     
   22.8937   18.0677   23.6565 C   0  0  0  0  0  0  0  0  0  0  0  0
   22.7063   17.4730   24.6997 O   0  5  0  0  0  0  0  0  0  0  0  0
   23.6785   17.6995   22.8047 O   0  0  0  0  0  0  0  0  0  0  0  0
   22.1173   19.3593   23.4153 C   0  0  0  0  0  0  0  0  0  0  0  0
   22.6287   19.9357   22.6349 H   0  0  0  0  0  0  0  0  0  0  0  0
   22.1744   19.9516   24.3361 H   0  0  0  0  0  0  0  0  0  0  0  0
   20.6301   19.1417   23.0324 C   0  0  0  0  0  0  0  0  0  0  0  0
   20.1424   18.5236   23.7989 H   0  0  0  0  0  0  0  0  0  0  0  0
   20.1263   20.1164   23.0360 H   0  0  0  0  0  0  0  0  0  0  0  0
   20.4634   18.4852   21.6423 C   0  0  0  0  0  0  0  0  0  0  0  0
   21.0603   17.5637   21.6046 H   0  0  0  0  0  0  0  0  0  0  0  0
   20.8778   19.1504   20.8727 H   0  0  0  0  0  0  0  0  0  0  0  0
   19.0005   18.1260   21.2796 C   0  0  0  0  0  0  0  0  0  0  0  0
   19.0174   17.6197   20.3048 H   0  0  0  0  0  0  0  0  0  0  0  0
   18.6064   17.3883   21.9918 H   0  0  0  0  0  0  0  0  0  0  0  0
   18.0411   19.3379   21.1760 C   0  0  0  0  0  0  0  0  0  0  0  0
   17.3303   19.1540   20.3585 H   0  0  0  0  0  0  0  0  0  0  0  0
   18.5985   20.2429   20.8978 H   0  0  0  0  0  0  0  0  0  0  0  0
   17.2292   19.5840   22.4673 C   0  0  0  0  0  0  0  0  0  0  0  0
   16.6122   18.7098   22.7125 H   0  0  0  0  0  0  0  0  0  0  0  0
   16.5582   20.4434   22.3409 H   0  0  0  0  0  0  0  0  0  0  0  0
   17.8790   19.7901   23.3253 H   0  0  0  0  0  0  0  0  0  0  0  0
  1  2  1  0  0  0  0
  1  3  2  0  0  0  0
  1  4  1  0  0  0  0
  4  5  1  0  0  0  0
  4  6  1  0  0  0  0
  4  7  1  0  0  0  0
  7  8  1  0  0  0  0
  7  9  1  0  0  0  0
  7 10  1  0  0  0  0
 10 11  1  0  0  0  0
 10 12  1  0  0  0  0
 10 13  1  0  0  0  0
 13 14  1  0  0  0  0
 13 15  1  0  0  0  0
 13 16  1  0  0  0  0
 16 17  1  0  0  0  0
 16 18  1  0  0  0  0
 16 19  1  0  0  0  0
 19 20  1  0  0  0  0
 19 21  1  0  0  0  0
 19 22  1  0  0  0  0
M  END
> <VConfSearch Rank>
739

> <Conf_Id>
94

> <Delta U+W>
3.471

> <U+W>
-49.688

> <U>
11.773

> <W>
-61.461

> <W(PB)>
-63.710

> <W(SA)>
2.248

> <Valence>
10.419

> <Coulomb>
0.566

> <VdW>
0.789

> <VdW6>
-8.847

> <VdW12>
9.636

> <Bond>
0.200

> <Angle>
3.187

> <Pdih>
7.032

> <Idih>
0.001

> <Tether>
0.000

$$$$
VeraChem MOL file


 22 21  0  0  0  0  0  0  0  0999 V2000     
   16.8868   20.1616   23.5036 C   0  0  0  0  0  0  0  0  0  0  0  0
   16.5873   20.8596   24.4522 O   0  5  0  0  0  0  0  0  0  0  0  0
   16.1592   19.3042   23.0431 O   0  0  0  0  0  0  0  0  0  0  0  0
   18.2587   20.3596   22.8690 C   0  0  0  0  0  0  0  0  0  0  0  0
   18.5264   21.4191   22.9590 H   0  0  0  0  0  0  0  0  0  0  0  0
   18.1673   20.1362   21.8000 H   0  0  0  0  0  0  0  0  0  0  0  0
   19.3537   19.4741   23.5181 C   0  0  0  0  0  0  0  0  0  0  0  0
   19.3638   19.6619   24.6006 H   0  0  0  0  0  0  0  0  0  0  0  0
   19.0901   18.4151   23.3962 H   0  0  0  0  0  0  0  0  0  0  0  0
   20.7740   19.7374   22.9580 C   0  0  0  0  0  0  0  0  0  0  0  0
   21.4926   19.1122   23.5041 H   0  0  0  0  0  0  0  0  0  0  0  0
   21.0554   20.7758   23.1795 H   0  0  0  0  0  0  0  0  0  0  0  0
   20.9385   19.4946   21.4344 C   0  0  0  0  0  0  0  0  0  0  0  0
   20.3413   20.2318   20.8822 H   0  0  0  0  0  0  0  0  0  0  0  0
   21.9831   19.6937   21.1593 H   0  0  0  0  0  0  0  0  0  0  0  0
   20.5572   18.0746   20.9485 C   0  0  0  0  0  0  0  0  0  0  0  0
   20.6882   18.0304   19.8586 H   0  0  0  0  0  0  0  0  0  0  0  0
   19.4917   17.8846   21.1344 H   0  0  0  0  0  0  0  0  0  0  0  0
   21.4064   16.9597   21.5965 C   0  0  0  0  0  0  0  0  0  0  0  0
   22.4775   17.1388   21.4366 H   0  0  0  0  0  0  0  0  0  0  0  0
   21.1571   15.9840   21.1601 H   0  0  0  0  0  0  0  0  0  0  0  0
   21.2248   16.8976   22.6768 H   0  0  0  0  0  0  0  0  0  0  0  0
  1  2  1  0  0  0  0
  1  3  2  0  0  0  0
  1  4  1  0  0  0  0
  4  5  1  0  0  0  0
  4  6  1  0  0  0  0
  4  7  1  0  0  0  0
  7  8  1  0  0  0  0
  7  9  1  0  0  0  0
  7 10  1  0  0  0  0
 10 11  1  0  0  0  0
 10 12  1  0  0  0  0
 10 13  1  0  0  0  0
 13 14  1  0  0  0  0
 13 15  1  0  0  0  0
 13 16  1  0  0  0  0
 16 17  1  0  0  0  0
 16 18  1  0  0  0  0
 16 19  1  0  0  0  0
 19 20  1  0  0  0  0
 19 21  1  0  0  0  0
 19 22  1  0  0  0  0
M  END
> <VConfSearch Rank>
740

> <Conf_Id>
56

> <Delta U+W>
0.853

> <U+W>
-52.307

> <U>
8.874

> <W>
-61.181

> <W(PB)>
-63.413

> <W(SA)>
2.232

> <Valence>
8.479

> <Coulomb>
-0.357

> <VdW>
0.753

> <VdW6>
-9.081

> <VdW12>
9.833

> <Bond>
0.221

> <Angle>
3.208

> <Pdih>
5.050

> <Idih>
0.000

> <Tether>
0.000

$$$$
VeraChem MOL file


 22 21  0  0  0  0  0  0  0  0999 V2000     
   23.4337   18.2967   23.8848 C   0  0  0  0  0  0  0  0  0  0  0  0
   23.9663   18.0322   22.8243 O   0  5  0  0  0  0  0  0  0  0  0  0
   24.0267   18.2890   24.9451 O   0  0  0  0  0  0  0  0  0  0  0  0
   21.9483   18.6599   23.9184 C   0  0  0  0  0  0  0  0  0  0  0  0
   21.8646   19.6523   24.3769 H   0  0  0  0  0  0  0  0  0  0  0  0
   21.4537   17.9518   24.5936 H   0  0  0  0  0  0  0  0  0  0  0  0
   21.2341   18.6570   22.5406 C   0  0  0  0  0  0  0  0  0  0  0  0
   21.7384   19.3639   21.8672 H   0  0  0  0  0  0  0  0  0  0  0  0
   21.3269   17.6617   22.0841 H   0  0  0  0  0  0  0  0  0  0  0  0
   19.7419   19.0337   22.6664 C   0  0  0  0  0  0  0  0  0  0  0  0
   19.6517   20.0290   23.1230 H   0  0  0  0  0  0  0  0  0  0  0  0
   19.2400   18.3258   23.3402 H   0  0  0  0  0  0  0  0  0  0  0  0
   19.0334   19.0301   21.2948 C   0  0  0  0  0  0  0  0  0  0  0  0
   19.5351   19.7379   20.6206 H   0  0  0  0  0  0  0  0  0  0  0  0
   19.1234   18.0350   20.8378 H   0  0  0  0  0  0  0  0  0  0  0  0
   17.5422   19.4066   21.4197 C   0  0  0  0  0  0  0  0  0  0  0  0
   17.4483   20.4024   21.8747 H   0  0  0  0  0  0  0  0  0  0  0  0
   17.0366   18.6995   22.0919 H   0  0  0  0  0  0  0  0  0  0  0  0
   16.8384   19.4017   20.0479 C   0  0  0  0  0  0  0  0  0  0  0  0
   17.3045   20.1238   19.3647 H   0  0  0  0  0  0  0  0  0  0  0  0
   15.7797   19.6714   20.1553 H   0  0  0  0  0  0  0  0  0  0  0  0
   16.8896   18.4081   19.5837 H   0  0  0  0  0  0  0  0  0  0  0  0
  1  2  1  0  0  0  0
  1  3  2  0  0  0  0
  1  4  1  0  0  0  0
  4  5  1  0  0  0  0
  4  6  1  0  0  0  0
  4  7  1  0  0  0  0
  7  8  1  0  0  0  0
  7  9  1  0  0  0  0
  7 10  1  0  0  0  0
 10 11  1  0  0  0  0
 10 12  1  0  0  0  0
 10 13  1  0  0  0  0
 13 14  1  0  0  0  0
 13 15  1  0  0  0  0
 13 16  1  0  0  0  0
 16 17  1  0  0  0  0
 16 18  1  0  0  0  0
 16 19  1  0  0  0  0
 19 20  1  0  0  0  0
 19 21  1  0  0  0  0
 19 22  1  0  0  0  0
M  END
> <VConfSearch Rank>
741

> <Conf_Id>
0

> <Delta U+W>
0.000

> <U+W>
-53.159

> <U>
6.763

> <W>
-59.922

> <W(PB)>
-62.256

> <W(SA)>
2.334

> <Valence>
7.600

> <Coulomb>
-2.139

> <VdW>
1.302

> <VdW6>
-6.786

> <VdW12>
8.088

> <Bond>
0.134

> <Angle>
2.720

> <Pdih>
4.746

> <Idih>
0.000

> <Tether>
0.000

$$$$
VeraChem MOL file


 22 21  0  0  0  0  0  0  0  0999 V2000     
   15.8078   19.1478   22.6491 C   0  0  0  0  0  0  0  0  0  0  0  0
   15.1718   18.7220   21.7054 O   0  5  0  0  0  0  0  0  0  0  0  0
   15.4281   20.0556   23.3619 O   0  0  0  0  0  0  0  0  0  0  0  0
   17.1676   18.5234   22.9413 C   0  0  0  0  0  0  0  0  0  0  0  0
   17.1241   17.4646   22.6589 H   0  0  0  0  0  0  0  0  0  0  0  0
   17.3352   18.5635   24.0243 H   0  0  0  0  0  0  0  0  0  0  0  0
   18.3265   19.2286   22.1945 C   0  0  0  0  0  0  0  0  0  0  0  0
   18.1370   19.1912   21.1127 H   0  0  0  0  0  0  0  0  0  0  0  0
   18.3481   20.2901   22.4781 H   0  0  0  0  0  0  0  0  0  0  0  0
   19.6915   18.5783   22.5068 C   0  0  0  0  0  0  0  0  0  0  0  0
   19.6661   17.5171   22.2233 H   0  0  0  0  0  0  0  0  0  0  0  0
   19.8772   18.6162   23.5890 H   0  0  0  0  0  0  0  0  0  0  0  0
   20.8448   19.2834   21.7611 C   0  0  0  0  0  0  0  0  0  0  0  0
   20.6595   19.2457   20.6788 H   0  0  0  0  0  0  0  0  0  0  0  0
   20.8706   20.3446   22.0443 H   0  0  0  0  0  0  0  0  0  0  0  0
   22.2095   18.6340   22.0727 C   0  0  0  0  0  0  0  0  0  0  0  0
   22.1882   17.5726   21.7888 H   0  0  0  0  0  0  0  0  0  0  0  0
   22.3993   18.6715   23.1543 H   0  0  0  0  0  0  0  0  0  0  0  0
   23.3585   19.3409   21.3261 C   0  0  0  0  0  0  0  0  0  0  0  0
   23.4230   20.3981   21.6152 H   0  0  0  0  0  0  0  0  0  0  0  0
   23.2102   19.2910   20.2394 H   0  0  0  0  0  0  0  0  0  0  0  0
   24.3207   18.8666   21.5589 H   0  0  0  0  0  0  0  0  0  0  0  0
  1  2  1  0  0  0  0
  1  3  2  0  0  0  0
  1  4  1  0  0  0  0
  4  5  1  0  0  0  0
  4  6  1  0  0  0  0
  4  7  1  0  0  0  0
  7  8  1  0  0  0  0
  7  9  1  0  0  0  0
  7 10  1  0  0  0  0
 10 11  1  0  0  0  0
 10 12  1  0  0  0  0
 10 13  1  0  0  0  0
 13 14  1  0  0  0  0
 13 15  1  0  0  0  0
 13 16  1  0  0  0  0
 16 17  1  0  0  0  0
 16 18  1  0  0  0  0
 16 19  1  0  0  0  0
 19 20  1  0  0  0  0
 19 21  1  0  0  0  0
 19 22  1  0  0  0  0
M  END
> <VConfSearch Rank>
742

> <Conf_Id>
10

> <Delta U+W>
-1.291

> <U+W>
-54.451

> <U>
5.779

> <W>
-60.230

> <W(PB)>
-62.557

> <W(SA)>
2.328

> <Valence>
7.101

> <Coulomb>
-2.079

> <VdW>
0.757

> <VdW6>
-6.496

> <VdW12>
7.253

> <Bond>
0.100

> <Angle>
2.262

> <Pdih>
4.738

> <Idih>
0.001

> <Tether>
0.000

$$$$
VeraChem MOL file


 22 21  0  0  0  0  0  0  0  0999 V2000     
   21.5236   18.3298   25.6880 C   0  0  0  0  0  0  0  0  0  0  0  0
   22.7328   18.2283   25.6240 O   0  5  0  0  0  0  0  0  0  0  0  0
   20.9320   18.7153   26.6769 O   0  0  0  0  0  0  0  0  0  0  0  0
   20.7048   17.9739   24.4522 C   0  0  0  0  0  0  0  0  0  0  0  0
   19.7415   17.5701   24.7864 H   0  0  0  0  0  0  0  0  0  0  0  0
   21.2257   17.1701   23.9183 H   0  0  0  0  0  0  0  0  0  0  0  0
   20.4799   19.1827   23.5107 C   0  0  0  0  0  0  0  0  0  0  0  0
   19.9696   19.9832   24.0641 H   0  0  0  0  0  0  0  0  0  0  0  0
   21.4533   19.5831   23.1952 H   0  0  0  0  0  0  0  0  0  0  0  0
   19.6488   18.7965   22.2679 C   0  0  0  0  0  0  0  0  0  0  0  0
   18.6756   18.3985   22.5863 H   0  0  0  0  0  0  0  0  0  0  0  0
   20.1636   17.9918   21.7268 H   0  0  0  0  0  0  0  0  0  0  0  0
   19.4302   20.0055   21.3295 C   0  0  0  0  0  0  0  0  0  0  0  0
   18.9791   20.8265   21.9035 H   0  0  0  0  0  0  0  0  0  0  0  0
   20.4001   20.3744   20.9688 H   0  0  0  0  0  0  0  0  0  0  0  0
   18.5159   19.6899   20.1230 C   0  0  0  0  0  0  0  0  0  0  0  0
   18.3177   20.6229   19.5775 H   0  0  0  0  0  0  0  0  0  0  0  0
   17.5424   19.3266   20.4801 H   0  0  0  0  0  0  0  0  0  0  0  0
   19.1268   18.6629   19.1451 C   0  0  0  0  0  0  0  0  0  0  0  0
   18.4824   18.5408   18.2649 H   0  0  0  0  0  0  0  0  0  0  0  0
   19.2363   17.6777   19.6154 H   0  0  0  0  0  0  0  0  0  0  0  0
   20.1151   18.9909   18.7975 H   0  0  0  0  0  0  0  0  0  0  0  0
  1  2  1  0  0  0  0
  1  3  2  0  0  0  0
  1  4  1  0  0  0  0
  4  5  1  0  0  0  0
  4  6  1  0  0  0  0
  4  7  1  0  0  0  0
  7  8  1  0  0  0  0
  7  9  1  0  0  0  0
  7 10  1  0  0  0  0
 10 11  1  0  0  0  0
 10 12  1  0  0  0  0
 10 13  1  0  0  0  0
 13 14  1  0  0  0  0
 13 15  1  0  0  0  0
 13 16  1  0  0  0  0
 16 17  1  0  0  0  0
 16 18  1  0  0  0  0
 16 19  1  0  0  0  0
 19 20  1  0  0  0  0
 19 21  1  0  0  0  0
 19 22  1  0  0  0  0
M  END
> <VConfSearch Rank>
743

> <Conf_Id>
37

> <Delta U+W>
-0.345

> <U+W>
-53.504

> <U>
6.751

> <W>
-60.255

> <W(PB)>
-62.592

> <W(SA)>
2.336

> <Valence>
7.602

> <Coulomb>
-1.744

> <VdW>
0.894

> <VdW6>
-7.110

> <VdW12>
8.004

> <Bond>
0.131

> <Angle>
2.489

> <Pdih>
4.982

> <Idih>
0.001

> <Tether>
0.000

$$$$
VeraChem MOL file


 22 21  0  0  0  0  0  0  0  0999 V2000     
   22.8422   16.5822   22.3182 C   0  0  0  0  0  0  0  0  0  0  0  0
   23.2441   16.3841   23.4476 O   0  5  0  0  0  0  0  0  0  0  0  0
   23.5445   16.5009   21.3299 O   0  0  0  0  0  0  0  0  0  0  0  0
   21.3810   16.9757   22.1326 C   0  0  0  0  0  0  0  0  0  0  0  0
   20.7929   16.4810   22.9150 H   0  0  0  0  0  0  0  0  0  0  0  0
   21.0402   16.5766   21.1697 H   0  0  0  0  0  0  0  0  0  0  0  0
   21.1589   18.5074   22.1849 C   0  0  0  0  0  0  0  0  0  0  0  0
   21.5163   18.8932   23.1498 H   0  0  0  0  0  0  0  0  0  0  0  0
   21.7649   18.9884   21.4046 H   0  0  0  0  0  0  0  0  0  0  0  0
   19.6725   18.8796   21.9944 C   0  0  0  0  0  0  0  0  0  0  0  0
   19.0759   18.3884   22.7741 H   0  0  0  0  0  0  0  0  0  0  0  0
   19.3186   18.4946   21.0283 H   0  0  0  0  0  0  0  0  0  0  0  0
   19.4556   20.4093   22.0513 C   0  0  0  0  0  0  0  0  0  0  0  0
   19.7613   20.7903   23.0354 H   0  0  0  0  0  0  0  0  0  0  0  0
   20.1118   20.8910   21.3136 H   0  0  0  0  0  0  0  0  0  0  0  0
   17.9971   20.8346   21.7625 C   0  0  0  0  0  0  0  0  0  0  0  0
   17.6899   20.4608   20.7760 H   0  0  0  0  0  0  0  0  0  0  0  0
   17.9545   21.9311   21.7057 H   0  0  0  0  0  0  0  0  0  0  0  0
   16.9962   20.3534   22.8352 C   0  0  0  0  0  0  0  0  0  0  0  0
   17.2995   20.6903   23.8350 H   0  0  0  0  0  0  0  0  0  0  0  0
   16.9187   19.2591   22.8489 H   0  0  0  0  0  0  0  0  0  0  0  0
   15.9946   20.7546   22.6329 H   0  0  0  0  0  0  0  0  0  0  0  0
  1  2  1  0  0  0  0
  1  3  2  0  0  0  0
  1  4  1  0  0  0  0
  4  5  1  0  0  0  0
  4  6  1  0  0  0  0
  4  7  1  0  0  0  0
  7  8  1  0  0  0  0
  7  9  1  0  0  0  0
  7 10  1  0  0  0  0
 10 11  1  0  0  0  0
 10 12  1  0  0  0  0
 10 13  1  0  0  0  0
 13 14  1  0  0  0  0
 13 15  1  0  0  0  0
 13 16  1  0  0  0  0
 16 17  1  0  0  0  0
 16 18  1  0  0  0  0
 16 19  1  0  0  0  0
 19 20  1  0  0  0  0
 19 21  1  0  0  0  0
 19 22  1  0  0  0  0
M  END
> <VConfSearch Rank>
744

> <Conf_Id>
38

> <Delta U+W>
-0.439

> <U+W>
-53.598

> <U>
6.751

> <W>
-60.350

> <W(PB)>
-62.659

> <W(SA)>
2.309

> <Valence>
7.602

> <Coulomb>
-1.744

> <VdW>
0.893

> <VdW6>
-7.110

> <VdW12>
8.004

> <Bond>
0.131

> <Angle>
2.489

> <Pdih>
4.981

> <Idih>
0.001

> <Tether>
0.000

$$$$
VeraChem MOL file


 22 21  0  0  0  0  0  0  0  0999 V2000     
   22.2843   17.3470   24.5939 C   0  0  0  0  0  0  0  0  0  0  0  0
   23.4504   17.1345   24.3263 O   0  5  0  0  0  0  0  0  0  0  0  0
   21.6741   16.7532   25.4608 O   0  0  0  0  0  0  0  0  0  0  0  0
   21.5398   18.4008   23.7819 C   0  0  0  0  0  0  0  0  0  0  0  0
   22.2584   19.1764   23.4912 H   0  0  0  0  0  0  0  0  0  0  0  0
   20.8032   18.8707   24.4431 H   0  0  0  0  0  0  0  0  0  0  0  0
   20.8503   17.8115   22.5238 C   0  0  0  0  0  0  0  0  0  0  0  0
   21.6009   17.2656   21.9356 H   0  0  0  0  0  0  0  0  0  0  0  0
   20.0981   17.0712   22.8295 H   0  0  0  0  0  0  0  0  0  0  0  0
   20.1942   18.8803   21.6172 C   0  0  0  0  0  0  0  0  0  0  0  0
   19.8636   18.3862   20.6947 H   0  0  0  0  0  0  0  0  0  0  0  0
   20.9468   19.6233   21.3203 H   0  0  0  0  0  0  0  0  0  0  0  0
   18.9890   19.5927   22.2790 C   0  0  0  0  0  0  0  0  0  0  0  0
   18.2372   18.8494   22.5774 H   0  0  0  0  0  0  0  0  0  0  0  0
   19.3186   20.0898   23.2000 H   0  0  0  0  0  0  0  0  0  0  0  0
   18.3308   20.6577   21.3708 C   0  0  0  0  0  0  0  0  0  0  0  0
   19.0823   21.3969   21.0607 H   0  0  0  0  0  0  0  0  0  0  0  0
   17.5813   21.2056   21.9584 H   0  0  0  0  0  0  0  0  0  0  0  0
   17.6420   20.0611   20.1241 C   0  0  0  0  0  0  0  0  0  0  0  0
   18.3705   19.6065   19.4414 H   0  0  0  0  0  0  0  0  0  0  0  0
   17.1109   20.8444   19.5680 H   0  0  0  0  0  0  0  0  0  0  0  0
   16.9102   19.2939   20.4087 H   0  0  0  0  0  0  0  0  0  0  0  0
  1  2  1  0  0  0  0
  1  3  2  0  0  0  0
  1  4  1  0  0  0  0
  4  5  1  0  0  0  0
  4  6  1  0  0  0  0
  4  7  1  0  0  0  0
  7  8  1  0  0  0  0
  7  9  1  0  0  0  0
  7 10  1  0  0  0  0
 10 11  1  0  0  0  0
 10 12  1  0  0  0  0
 10 13  1  0  0  0  0
 13 14  1  0  0  0  0
 13 15  1  0  0  0  0
 13 16  1  0  0  0  0
 16 17  1  0  0  0  0
 16 18  1  0  0  0  0
 16 19  1  0  0  0  0
 19 20  1  0  0  0  0
 19 21  1  0  0  0  0
 19 22  1  0  0  0  0
M  END
> <VConfSearch Rank>
745

> <Conf_Id>
60

> <Delta U+W>
0.386

> <U+W>
-52.773

> <U>
7.689

> <W>
-60.463

> <W(PB)>
-62.772

> <W(SA)>
2.309

> <Valence>
8.197

> <Coulomb>
-1.561

> <VdW>
1.053

> <VdW6>
-7.737

> <VdW12>
8.790

> <Bond>
0.181

> <Angle>
2.780

> <Pdih>
5.235

> <Idih>
0.001

> <Tether>
0.000

$$$$
VeraChem MOL file


 22 21  0  0  0  0  0  0  0  0999 V2000     
   19.6319   21.6319   19.6049 C   0  0  0  0  0  0  0  0  0  0  0  0
   19.8660   22.7161   20.1012 O   0  5  0  0  0  0  0  0  0  0  0  0
   19.0684   21.4880   18.5380 O   0  0  0  0  0  0  0  0  0  0  0  0
   20.0478   20.3828   20.3737 C   0  0  0  0  0  0  0  0  0  0  0  0
   20.9671   20.6199   20.9207 H   0  0  0  0  0  0  0  0  0  0  0  0
   20.2944   19.6015   19.6450 H   0  0  0  0  0  0  0  0  0  0  0  0
   18.9463   19.8814   21.3437 C   0  0  0  0  0  0  0  0  0  0  0  0
   18.7423   20.6530   22.0988 H   0  0  0  0  0  0  0  0  0  0  0  0
   18.0142   19.7481   20.7774 H   0  0  0  0  0  0  0  0  0  0  0  0
   19.2952   18.5452   22.0421 C   0  0  0  0  0  0  0  0  0  0  0  0
   19.5065   17.7783   21.2846 H   0  0  0  0  0  0  0  0  0  0  0  0
   18.4062   18.2061   22.5890 H   0  0  0  0  0  0  0  0  0  0  0  0
   20.4898   18.6563   23.0212 C   0  0  0  0  0  0  0  0  0  0  0  0
   21.3802   18.9923   22.4750 H   0  0  0  0  0  0  0  0  0  0  0  0
   20.2791   19.4246   23.7775 H   0  0  0  0  0  0  0  0  0  0  0  0
   20.8351   17.3216   23.7224 C   0  0  0  0  0  0  0  0  0  0  0  0
   21.7683   17.4529   24.2873 H   0  0  0  0  0  0  0  0  0  0  0  0
   21.0354   16.5473   22.9689 H   0  0  0  0  0  0  0  0  0  0  0  0
   19.7355   16.8338   24.6906 C   0  0  0  0  0  0  0  0  0  0  0  0
   19.4942   17.6062   25.4324 H   0  0  0  0  0  0  0  0  0  0  0  0
   20.0703   15.9392   25.2313 H   0  0  0  0  0  0  0  0  0  0  0  0
   18.8153   16.5714   24.1541 H   0  0  0  0  0  0  0  0  0  0  0  0
  1  2  1  0  0  0  0
  1  3  2  0  0  0  0
  1  4  1  0  0  0  0
  4  5  1  0  0  0  0
  4  6  1  0  0  0  0
  4  7  1  0  0  0  0
  7  8  1  0  0  0  0
  7  9  1  0  0  0  0
  7 10  1  0  0  0  0
 10 11  1  0  0  0  0
 10 12  1  0  0  0  0
 10 13  1  0  0  0  0
 13 14  1  0  0  0  0
 13 15  1  0  0  0  0
 13 16  1  0  0  0  0
 16 17  1  0  0  0  0
 16 18  1  0  0  0  0
 16 19  1  0  0  0  0
 19 20  1  0  0  0  0
 19 21  1  0  0  0  0
 19 22  1  0  0  0  0
M  END
> <VConfSearch Rank>
746

> <Conf_Id>
28

> <Delta U+W>
0.351

> <U+W>
-52.808

> <U>
7.689

> <W>
-60.498

> <W(PB)>
-62.768

> <W(SA)>
2.270

> <Valence>
8.197

> <Coulomb>
-1.561

> <VdW>
1.053

> <VdW6>
-7.737

> <VdW12>
8.791

> <Bond>
0.181

> <Angle>
2.780

> <Pdih>
5.235

> <Idih>
0.001

> <Tether>
0.000

$$$$
VeraChem MOL file


 22 21  0  0  0  0  0  0  0  0999 V2000     
   21.5977   16.1612   24.1791 C   0  0  0  0  0  0  0  0  0  0  0  0
   22.2132   16.4871   25.1749 O   0  5  0  0  0  0  0  0  0  0  0  0
   20.8854   15.1786   24.1197 O   0  0  0  0  0  0  0  0  0  0  0  0
   21.7099   17.0450   22.9420 C   0  0  0  0  0  0  0  0  0  0  0  0
   21.6199   16.4046   22.0563 H   0  0  0  0  0  0  0  0  0  0  0  0
   22.7157   17.4818   22.9256 H   0  0  0  0  0  0  0  0  0  0  0  0
   20.6398   18.1637   22.9028 C   0  0  0  0  0  0  0  0  0  0  0  0
   19.6438   17.7031   22.9405 H   0  0  0  0  0  0  0  0  0  0  0  0
   20.7373   18.7904   23.8001 H   0  0  0  0  0  0  0  0  0  0  0  0
   20.7736   19.0411   21.6366 C   0  0  0  0  0  0  0  0  0  0  0  0
   20.6236   18.4238   20.7402 H   0  0  0  0  0  0  0  0  0  0  0  0
   21.7997   19.4294   21.5784 H   0  0  0  0  0  0  0  0  0  0  0  0
   19.7946   20.2387   21.6102 C   0  0  0  0  0  0  0  0  0  0  0  0
   19.9471   20.8585   22.5044 H   0  0  0  0  0  0  0  0  0  0  0  0
   20.0427   20.8721   20.7476 H   0  0  0  0  0  0  0  0  0  0  0  0
   18.3102   19.8196   21.5138 C   0  0  0  0  0  0  0  0  0  0  0  0
   18.0189   19.2502   22.4062 H   0  0  0  0  0  0  0  0  0  0  0  0
   18.1676   19.1567   20.6493 H   0  0  0  0  0  0  0  0  0  0  0  0
   17.3845   21.0453   21.3773 C   0  0  0  0  0  0  0  0  0  0  0  0
   17.6224   21.6189   20.4720 H   0  0  0  0  0  0  0  0  0  0  0  0
   17.4868   21.7126   22.2431 H   0  0  0  0  0  0  0  0  0  0  0  0
   16.3345   20.7316   21.3133 H   0  0  0  0  0  0  0  0  0  0  0  0
  1  2  1  0  0  0  0
  1  3  2  0  0  0  0
  1  4  1  0  0  0  0
  4  5  1  0  0  0  0
  4  6  1  0  0  0  0
  4  7  1  0  0  0  0
  7  8  1  0  0  0  0
  7  9  1  0  0  0  0
  7 10  1  0  0  0  0
 10 11  1  0  0  0  0
 10 12  1  0  0  0  0
 10 13  1  0  0  0  0
 13 14  1  0  0  0  0
 13 15  1  0  0  0  0
 13 16  1  0  0  0  0
 16 17  1  0  0  0  0
 16 18  1  0  0  0  0
 16 19  1  0  0  0  0
 19 20  1  0  0  0  0
 19 21  1  0  0  0  0
 19 22  1  0  0  0  0
M  END
> <VConfSearch Rank>
747

> <Conf_Id>
50

> <Delta U+W>
-0.486

> <U+W>
-53.646

> <U>
7.026

> <W>
-60.672

> <W(PB)>
-62.964

> <W(SA)>
2.292

> <Valence>
7.637

> <Coulomb>
-1.488

> <VdW>
0.877

> <VdW6>
-7.165

> <VdW12>
8.043

> <Bond>
0.134

> <Angle>
2.513

> <Pdih>
4.990

> <Idih>
0.001

> <Tether>
0.000

$$$$
VeraChem MOL file


 22 21  0  0  0  0  0  0  0  0999 V2000     
   21.0151   20.6214   25.3853 C   0  0  0  0  0  0  0  0  0  0  0  0
   21.3767   21.7784   25.3013 O   0  5  0  0  0  0  0  0  0  0  0  0
   21.6158   19.7724   26.0137 O   0  0  0  0  0  0  0  0  0  0  0  0
   19.7486   20.2073   24.6444 C   0  0  0  0  0  0  0  0  0  0  0  0
   19.0644   21.0643   24.6345 H   0  0  0  0  0  0  0  0  0  0  0  0
   19.2622   19.4105   25.2199 H   0  0  0  0  0  0  0  0  0  0  0  0
   20.0270   19.7279   23.1984 C   0  0  0  0  0  0  0  0  0  0  0  0
   20.5220   20.5332   22.6383 H   0  0  0  0  0  0  0  0  0  0  0  0
   20.7286   18.8840   23.2336 H   0  0  0  0  0  0  0  0  0  0  0  0
   18.7270   19.3103   22.4727 C   0  0  0  0  0  0  0  0  0  0  0  0
   18.0110   20.1424   22.5161 H   0  0  0  0  0  0  0  0  0  0  0  0
   18.2595   18.4698   23.0037 H   0  0  0  0  0  0  0  0  0  0  0  0
   18.9447   18.9286   20.9892 C   0  0  0  0  0  0  0  0  0  0  0  0
   17.9626   18.7700   20.5231 H   0  0  0  0  0  0  0  0  0  0  0  0
   19.4086   19.7703   20.4569 H   0  0  0  0  0  0  0  0  0  0  0  0
   19.8011   17.6564   20.7992 C   0  0  0  0  0  0  0  0  0  0  0  0
   19.3662   16.8274   21.3744 H   0  0  0  0  0  0  0  0  0  0  0  0
   20.8143   17.8203   21.1889 H   0  0  0  0  0  0  0  0  0  0  0  0
   19.8947   17.2547   19.3133 C   0  0  0  0  0  0  0  0  0  0  0  0
   20.3519   18.0562   18.7183 H   0  0  0  0  0  0  0  0  0  0  0  0
   18.8998   17.0449   18.8992 H   0  0  0  0  0  0  0  0  0  0  0  0
   20.5082   16.3522   19.1946 H   0  0  0  0  0  0  0  0  0  0  0  0
  1  2  1  0  0  0  0
  1  3  2  0  0  0  0
  1  4  1  0  0  0  0
  4  5  1  0  0  0  0
  4  6  1  0  0  0  0
  4  7  1  0  0  0  0
  7  8  1  0  0  0  0
  7  9  1  0  0  0  0
  7 10  1  0  0  0  0
 10 11  1  0  0  0  0
 10 12  1  0  0  0  0
 10 13  1  0  0  0  0
 13 14  1  0  0  0  0
 13 15  1  0  0  0  0
 13 16  1  0  0  0  0
 16 17  1  0  0  0  0
 16 18  1  0  0  0  0
 16 19  1  0  0  0  0
 19 20  1  0  0  0  0
 19 21  1  0  0  0  0
 19 22  1  0  0  0  0
M  END
> <VConfSearch Rank>
748

> <Conf_Id>
51

> <Delta U+W>
-0.517

> <U+W>
-53.677

> <U>
7.026

> <W>
-60.703

> <W(PB)>
-63.007

> <W(SA)>
2.304

> <Valence>
7.638

> <Coulomb>
-1.488

> <VdW>
0.877

> <VdW6>
-7.165

> <VdW12>
8.042

> <Bond>
0.134

> <Angle>
2.513

> <Pdih>
4.990

> <Idih>
0.001

> <Tether>
0.000

$$$$
VeraChem MOL file


 22 21  0  0  0  0  0  0  0  0999 V2000     
   23.4445   18.9079   22.3546 C   0  0  0  0  0  0  0  0  0  0  0  0
   23.9100   20.0296   22.3975 O   0  5  0  0  0  0  0  0  0  0  0  0
   23.6327   18.0685   23.2129 O   0  0  0  0  0  0  0  0  0  0  0  0
   22.5927   18.5288   21.1463 C   0  0  0  0  0  0  0  0  0  0  0  0
   22.5439   17.4350   21.0815 H   0  0  0  0  0  0  0  0  0  0  0  0
   23.1210   18.8764   20.2507 H   0  0  0  0  0  0  0  0  0  0  0  0
   21.1627   19.1282   21.1696 C   0  0  0  0  0  0  0  0  0  0  0  0
   21.2277   20.2212   21.2630 H   0  0  0  0  0  0  0  0  0  0  0  0
   20.6739   18.9216   20.2078 H   0  0  0  0  0  0  0  0  0  0  0  0
   20.2969   18.5557   22.3142 C   0  0  0  0  0  0  0  0  0  0  0  0
   20.7710   18.7735   23.2813 H   0  0  0  0  0  0  0  0  0  0  0  0
   20.2459   17.4620   22.2240 H   0  0  0  0  0  0  0  0  0  0  0  0
   18.8689   19.1423   22.2994 C   0  0  0  0  0  0  0  0  0  0  0  0
   18.9208   20.2360   22.3897 H   0  0  0  0  0  0  0  0  0  0  0  0
   18.3917   18.9233   21.3343 H   0  0  0  0  0  0  0  0  0  0  0  0
   18.0040   18.5716   23.4427 C   0  0  0  0  0  0  0  0  0  0  0  0
   18.4774   18.7903   24.4099 H   0  0  0  0  0  0  0  0  0  0  0  0
   17.9484   17.4777   23.3547 H   0  0  0  0  0  0  0  0  0  0  0  0
   16.5790   19.1601   23.4251 C   0  0  0  0  0  0  0  0  0  0  0  0
   16.6032   20.2513   23.5433 H   0  0  0  0  0  0  0  0  0  0  0  0
   15.9783   18.7437   24.2441 H   0  0  0  0  0  0  0  0  0  0  0  0
   16.0702   18.9288   22.4800 H   0  0  0  0  0  0  0  0  0  0  0  0
  1  2  1  0  0  0  0
  1  3  2  0  0  0  0
  1  4  1  0  0  0  0
  4  5  1  0  0  0  0
  4  6  1  0  0  0  0
  4  7  1  0  0  0  0
  7  8  1  0  0  0  0
  7  9  1  0  0  0  0
  7 10  1  0  0  0  0
 10 11  1  0  0  0  0
 10 12  1  0  0  0  0
 10 13  1  0  0  0  0
 13 14  1  0  0  0  0
 13 15  1  0  0  0  0
 13 16  1  0  0  0  0
 16 17  1  0  0  0  0
 16 18  1  0  0  0  0
 16 19  1  0  0  0  0
 19 20  1  0  0  0  0
 19 21  1  0  0  0  0
 19 22  1  0  0  0  0
M  END
> <VConfSearch Rank>
749

> <Conf_Id>
43

> <Delta U+W>
-0.129

> <U+W>
-53.289

> <U>
7.937

> <W>
-61.225

> <W(PB)>
-63.523

> <W(SA)>
2.297

> <Valence>
7.358

> <Coulomb>
-0.022

> <VdW>
0.601

> <VdW6>
-7.363

> <VdW12>
7.964

> <Bond>
0.121

> <Angle>
2.425

> <Pdih>
4.811

> <Idih>
0.000

> <Tether>
0.000

$$$$
VeraChem MOL file


 22 21  0  0  0  0  0  0  0  0999 V2000     
   20.0878   20.0597   19.0438 C   0  0  0  0  0  0  0  0  0  0  0  0
   19.2800   19.5472   18.2942 O   0  5  0  0  0  0  0  0  0  0  0  0
   21.2886   19.8985   18.9499 O   0  0  0  0  0  0  0  0  0  0  0  0
   19.5643   20.9696   20.1515 C   0  0  0  0  0  0  0  0  0  0  0  0
   18.8181   21.6360   19.7032 H   0  0  0  0  0  0  0  0  0  0  0  0
   20.3874   21.6044   20.5015 H   0  0  0  0  0  0  0  0  0  0  0  0
   18.9295   20.2095   21.3449 C   0  0  0  0  0  0  0  0  0  0  0  0
   18.4602   20.9366   22.0215 H   0  0  0  0  0  0  0  0  0  0  0  0
   18.1260   19.5573   20.9751 H   0  0  0  0  0  0  0  0  0  0  0  0
   19.9618   19.3726   22.1333 C   0  0  0  0  0  0  0  0  0  0  0  0
   20.7693   20.0268   22.4895 H   0  0  0  0  0  0  0  0  0  0  0  0
   20.4235   18.6310   21.4667 H   0  0  0  0  0  0  0  0  0  0  0  0
   19.3146   18.6501   23.3344 C   0  0  0  0  0  0  0  0  0  0  0  0
   18.8547   19.3899   24.0039 H   0  0  0  0  0  0  0  0  0  0  0  0
   18.5072   17.9961   22.9773 H   0  0  0  0  0  0  0  0  0  0  0  0
   20.3448   17.8135   24.1217 C   0  0  0  0  0  0  0  0  0  0  0  0
   21.1533   18.4648   24.4819 H   0  0  0  0  0  0  0  0  0  0  0  0
   20.8058   17.0711   23.4555 H   0  0  0  0  0  0  0  0  0  0  0  0
   19.6948   17.0930   25.3199 C   0  0  0  0  0  0  0  0  0  0  0  0
   19.2528   17.8146   26.0194 H   0  0  0  0  0  0  0  0  0  0  0  0
   20.4411   16.5033   25.8680 H   0  0  0  0  0  0  0  0  0  0  0  0
   18.9027   16.4105   24.9852 H   0  0  0  0  0  0  0  0  0  0  0  0
  1  2  1  0  0  0  0
  1  3  2  0  0  0  0
  1  4  1  0  0  0  0
  4  5  1  0  0  0  0
  4  6  1  0  0  0  0
  4  7  1  0  0  0  0
  7  8  1  0  0  0  0
  7  9  1  0  0  0  0
  7 10  1  0  0  0  0
 10 11  1  0  0  0  0
 10 12  1  0  0  0  0
 10 13  1  0  0  0  0
 13 14  1  0  0  0  0
 13 15  1  0  0  0  0
 13 16  1  0  0  0  0
 16 17  1  0  0  0  0
 16 18  1  0  0  0  0
 16 19  1  0  0  0  0
 19 20  1  0  0  0  0
 19 21  1  0  0  0  0
 19 22  1  0  0  0  0
M  END
> <VConfSearch Rank>
750

> <Conf_Id>
44

> <Delta U+W>
-0.155

> <U+W>
-53.314

> <U>
7.937

> <W>
-61.252

> <W(PB)>
-63.556

> <W(SA)>
2.304

> <Valence>
7.358

> <Coulomb>
-0.021

> <VdW>
0.600

> <VdW6>
-7.363

> <VdW12>
7.964

> <Bond>
0.121

> <Angle>
2.425

> <Pdih>
4.811

> <Idih>
0.001

> <Tether>
0.000

$$$$
VeraChem MOL file


 22 21  0  0  0  0  0  0  0  0999 V2000     
   22.0372   21.4033   21.0437 C   0  0  0  0  0  0  0  0  0  0  0  0
   21.5436   22.0678   20.1539 O   0  5  0  0  0  0  0  0  0  0  0  0
   23.1174   20.8541   20.9524 O   0  0  0  0  0  0  0  0  0  0  0  0
   21.2652   21.2684   22.3533 C   0  0  0  0  0  0  0  0  0  0  0  0
   20.9095   22.2685   22.6277 H   0  0  0  0  0  0  0  0  0  0  0  0
   21.9613   20.9525   23.1398 H   0  0  0  0  0  0  0  0  0  0  0  0
   20.0614   20.2931   22.2806 C   0  0  0  0  0  0  0  0  0  0  0  0
   19.4854   20.3825   23.2103 H   0  0  0  0  0  0  0  0  0  0  0  0
   19.3943   20.5990   21.4628 H   0  0  0  0  0  0  0  0  0  0  0  0
   20.4999   18.8227   22.0780 C   0  0  0  0  0  0  0  0  0  0  0  0
   21.1325   18.5054   22.9183 H   0  0  0  0  0  0  0  0  0  0  0  0
   21.1252   18.7540   21.1774 H   0  0  0  0  0  0  0  0  0  0  0  0
   19.3139   17.8414   21.9222 C   0  0  0  0  0  0  0  0  0  0  0  0
   18.6815   18.1592   21.0820 H   0  0  0  0  0  0  0  0  0  0  0  0
   19.7134   16.8538   21.6537 H   0  0  0  0  0  0  0  0  0  0  0  0
   18.4542   17.7034   23.1991 C   0  0  0  0  0  0  0  0  0  0  0  0
   17.9788   18.6629   23.4411 H   0  0  0  0  0  0  0  0  0  0  0  0
   19.0956   17.4388   24.0510 H   0  0  0  0  0  0  0  0  0  0  0  0
   17.3594   16.6308   23.0300 C   0  0  0  0  0  0  0  0  0  0  0  0
   16.6862   16.8845   22.2006 H   0  0  0  0  0  0  0  0  0  0  0  0
   16.7558   16.5470   23.9431 H   0  0  0  0  0  0  0  0  0  0  0  0
   17.8011   15.6469   22.8246 H   0  0  0  0  0  0  0  0  0  0  0  0
  1  2  1  0  0  0  0
  1  3  2  0  0  0  0
  1  4  1  0  0  0  0
  4  5  1  0  0  0  0
  4  6  1  0  0  0  0
  4  7  1  0  0  0  0
  7  8  1  0  0  0  0
  7  9  1  0  0  0  0
  7 10  1  0  0  0  0
 10 11  1  0  0  0  0
 10 12  1  0  0  0  0
 10 13  1  0  0  0  0
 13 14  1  0  0  0  0
 13 15  1  0  0  0  0
 13 16  1  0  0  0  0
 16 17  1  0  0  0  0
 16 18  1  0  0  0  0
 16 19  1  0  0  0  0
 19 20  1  0  0  0  0
 19 21  1  0  0  0  0
 19 22  1  0  0  0  0
M  END
> <VConfSearch Rank>
751

> <Conf_Id>
53

> <Delta U+W>
0.723

> <U+W>
-52.436

> <U>
8.587

> <W>
-61.022

> <W(PB)>
-63.285

> <W(SA)>
2.263

> <Valence>
7.933

> <Coulomb>
-0.124

> <VdW>
0.778

> <VdW6>
-7.981

> <VdW12>
8.759

> <Bond>
0.160

> <Angle>
2.698

> <Pdih>
5.074

> <Idih>
0.001

> <Tether>
0.000

$$$$
VeraChem MOL file


 22 21  0  0  0  0  0  0  0  0999 V2000     
   22.9984   19.3533   23.0987 C   0  0  0  0  0  0  0  0  0  0  0  0
   23.0950   19.9648   24.1443 O   0  5  0  0  0  0  0  0  0  0  0  0
   23.9497   18.8962   22.4965 O   0  0  0  0  0  0  0  0  0  0  0  0
   21.6054   19.1276   22.5219 C   0  0  0  0  0  0  0  0  0  0  0  0
   21.6907   19.0893   21.4295 H   0  0  0  0  0  0  0  0  0  0  0  0
   20.9963   20.0025   22.7756 H   0  0  0  0  0  0  0  0  0  0  0  0
   20.9379   17.8342   23.0536 C   0  0  0  0  0  0  0  0  0  0  0  0
   21.6319   16.9947   22.9082 H   0  0  0  0  0  0  0  0  0  0  0  0
   20.7881   17.9246   24.1383 H   0  0  0  0  0  0  0  0  0  0  0  0
   19.5921   17.4829   22.3709 C   0  0  0  0  0  0  0  0  0  0  0  0
   19.2456   16.5302   22.7944 H   0  0  0  0  0  0  0  0  0  0  0  0
   19.7500   17.2933   21.3004 H   0  0  0  0  0  0  0  0  0  0  0  0
   18.4724   18.5354   22.5711 C   0  0  0  0  0  0  0  0  0  0  0  0
   17.5141   18.0084   22.6761 H   0  0  0  0  0  0  0  0  0  0  0  0
   18.6278   19.0773   23.5140 H   0  0  0  0  0  0  0  0  0  0  0  0
   18.3473   19.5290   21.3930 C   0  0  0  0  0  0  0  0  0  0  0  0
   18.1350   18.9765   20.4673 H   0  0  0  0  0  0  0  0  0  0  0  0
   19.2939   20.0586   21.2320 H   0  0  0  0  0  0  0  0  0  0  0  0
   17.2266   20.5591   21.6388 C   0  0  0  0  0  0  0  0  0  0  0  0
   16.2559   20.0617   21.7638 H   0  0  0  0  0  0  0  0  0  0  0  0
   17.1457   21.2523   20.7915 H   0  0  0  0  0  0  0  0  0  0  0  0
   17.4282   21.1498   22.5420 H   0  0  0  0  0  0  0  0  0  0  0  0
  1  2  1  0  0  0  0
  1  3  2  0  0  0  0
  1  4  1  0  0  0  0
  4  5  1  0  0  0  0
  4  6  1  0  0  0  0
  4  7  1  0  0  0  0
  7  8  1  0  0  0  0
  7  9  1  0  0  0  0
  7 10  1  0  0  0  0
 10 11  1  0  0  0  0
 10 12  1  0  0  0  0
 10 13  1  0  0  0  0
 13 14  1  0  0  0  0
 13 15  1  0  0  0  0
 13 16  1  0  0  0  0
 16 17  1  0  0  0  0
 16 18  1  0  0  0  0
 16 19  1  0  0  0  0
 19 20  1  0  0  0  0
 19 21  1  0  0  0  0
 19 22  1  0  0  0  0
M  END
> <VConfSearch Rank>
752

> <Conf_Id>
5

> <Delta U+W>
2.167

> <U+W>
-50.993

> <U>
10.045

> <W>
-61.037

> <W(PB)>
-63.303

> <W(SA)>
2.266

> <Valence>
10.100

> <Coulomb>
-0.883

> <VdW>
0.828

> <VdW6>
-8.177

> <VdW12>
9.005

> <Bond>
0.182

> <Angle>
2.988

> <Pdih>
6.930

> <Idih>
0.001

> <Tether>
0.000

$$$$
VeraChem MOL file


 22 21  0  0  0  0  0  0  0  0999 V2000     
   19.9535   15.8234   23.6517 C   0  0  0  0  0  0  0  0  0  0  0  0
   18.8219   15.3829   23.6966 O   0  5  0  0  0  0  0  0  0  0  0  0
   20.9214   15.2372   24.0945 O   0  0  0  0  0  0  0  0  0  0  0  0
   20.1678   17.1969   23.0260 C   0  0  0  0  0  0  0  0  0  0  0  0
   19.4364   17.3104   22.2179 H   0  0  0  0  0  0  0  0  0  0  0  0
   21.1664   17.2135   22.5735 H   0  0  0  0  0  0  0  0  0  0  0  0
   20.0233   18.3517   24.0492 C   0  0  0  0  0  0  0  0  0  0  0  0
   18.9936   18.3684   24.4320 H   0  0  0  0  0  0  0  0  0  0  0  0
   20.6687   18.1395   24.9128 H   0  0  0  0  0  0  0  0  0  0  0  0
   20.3928   19.7492   23.4915 C   0  0  0  0  0  0  0  0  0  0  0  0
   21.4510   19.7705   23.1972 H   0  0  0  0  0  0  0  0  0  0  0  0
   20.2980   20.4695   24.3156 H   0  0  0  0  0  0  0  0  0  0  0  0
   19.4996   20.2344   22.3216 C   0  0  0  0  0  0  0  0  0  0  0  0
   18.5015   19.7814   22.3957 H   0  0  0  0  0  0  0  0  0  0  0  0
   19.3513   21.3182   22.4234 H   0  0  0  0  0  0  0  0  0  0  0  0
   20.1128   19.9624   20.9285 C   0  0  0  0  0  0  0  0  0  0  0  0
   20.3061   18.8915   20.7938 H   0  0  0  0  0  0  0  0  0  0  0  0
   21.0843   20.4694   20.8493 H   0  0  0  0  0  0  0  0  0  0  0  0
   19.1880   20.4558   19.7977 C   0  0  0  0  0  0  0  0  0  0  0  0
   18.2184   19.9419   19.8317 H   0  0  0  0  0  0  0  0  0  0  0  0
   19.6399   20.2623   18.8162 H   0  0  0  0  0  0  0  0  0  0  0  0
   19.0071   21.5355   19.8807 H   0  0  0  0  0  0  0  0  0  0  0  0
  1  2  1  0  0  0  0
  1  3  2  0  0  0  0
  1  4  1  0  0  0  0
  4  5  1  0  0  0  0
  4  6  1  0  0  0  0
  4  7  1  0  0  0  0
  7  8  1  0  0  0  0
  7  9  1  0  0  0  0
  7 10  1  0  0  0  0
 10 11  1  0  0  0  0
 10 12  1  0  0  0  0
 10 13  1  0  0  0  0
 13 14  1  0  0  0  0
 13 15  1  0  0  0  0
 13 16  1  0  0  0  0
 16 17  1  0  0  0  0
 16 18  1  0  0  0  0
 16 19  1  0  0  0  0
 19 20  1  0  0  0  0
 19 21  1  0  0  0  0
 19 22  1  0  0  0  0
M  END
> <VConfSearch Rank>
753

> <Conf_Id>
6

> <Delta U+W>
2.118

> <U+W>
-51.042

> <U>
10.045

> <W>
-61.086

> <W(PB)>
-63.356

> <W(SA)>
2.270

> <Valence>
10.100

> <Coulomb>
-0.883

> <VdW>
0.828

> <VdW6>
-8.177

> <VdW12>
9.004

> <Bond>
0.182

> <Angle>
2.988

> <Pdih>
6.930

> <Idih>
0.001

> <Tether>
0.000

$$$$
VeraChem MOL file


 22 21  0  0  0  0  0  0  0  0999 V2000     
   18.8753   16.8332   24.0736 C   0  0  0  0  0  0  0  0  0  0  0  0
   17.6886   16.9723   24.2968 O   0  5  0  0  0  0  0  0  0  0  0  0
   19.7347   16.9403   24.9263 O   0  0  0  0  0  0  0  0  0  0  0  0
   19.3060   16.4333   22.6637 C   0  0  0  0  0  0  0  0  0  0  0  0
   18.8650   15.4477   22.4748 H   0  0  0  0  0  0  0  0  0  0  0  0
   20.3943   16.2982   22.6480 H   0  0  0  0  0  0  0  0  0  0  0  0
   18.8682   17.4079   21.5343 C   0  0  0  0  0  0  0  0  0  0  0  0
   18.8975   16.8594   20.5831 H   0  0  0  0  0  0  0  0  0  0  0  0
   17.8199   17.7036   21.6801 H   0  0  0  0  0  0  0  0  0  0  0  0
   19.7584   18.6659   21.3806 C   0  0  0  0  0  0  0  0  0  0  0  0
   19.4519   19.1919   20.4660 H   0  0  0  0  0  0  0  0  0  0  0  0
   20.8032   18.3630   21.2269 H   0  0  0  0  0  0  0  0  0  0  0  0
   19.6722   19.6483   22.5705 C   0  0  0  0  0  0  0  0  0  0  0  0
   18.6189   19.8712   22.7896 H   0  0  0  0  0  0  0  0  0  0  0  0
   20.0961   19.1834   23.4696 H   0  0  0  0  0  0  0  0  0  0  0  0
   20.4296   20.9617   22.2820 C   0  0  0  0  0  0  0  0  0  0  0  0
   20.0098   21.4439   21.3883 H   0  0  0  0  0  0  0  0  0  0  0  0
   21.4829   20.7403   22.0610 H   0  0  0  0  0  0  0  0  0  0  0  0
   20.3500   21.9366   23.4740 C   0  0  0  0  0  0  0  0  0  0  0  0
   19.3077   22.1996   23.6970 H   0  0  0  0  0  0  0  0  0  0  0  0
   20.8941   22.8640   23.2527 H   0  0  0  0  0  0  0  0  0  0  0  0
   20.7912   21.4911   24.3753 H   0  0  0  0  0  0  0  0  0  0  0  0
  1  2  1  0  0  0  0
  1  3  2  0  0  0  0
  1  4  1  0  0  0  0
  4  5  1  0  0  0  0
  4  6  1  0  0  0  0
  4  7  1  0  0  0  0
  7  8  1  0  0  0  0
  7  9  1  0  0  0  0
  7 10  1  0  0  0  0
 10 11  1  0  0  0  0
 10 12  1  0  0  0  0
 10 13  1  0  0  0  0
 13 14  1  0  0  0  0
 13 15  1  0  0  0  0
 13 16  1  0  0  0  0
 16 17  1  0  0  0  0
 16 18  1  0  0  0  0
 16 19  1  0  0  0  0
 19 20  1  0  0  0  0
 19 21  1  0  0  0  0
 19 22  1  0  0  0  0
M  END
> <VConfSearch Rank>
754

> <Conf_Id>
8

> <Delta U+W>
1.886

> <U+W>
-51.274

> <U>
11.237

> <W>
-62.510

> <W(PB)>
-64.777

> <W(SA)>
2.267

> <Valence>
9.029

> <Coulomb>
1.667

> <VdW>
0.540

> <VdW6>
-8.825

> <VdW12>
9.365

> <Bond>
0.186

> <Angle>
3.195

> <Pdih>
5.642

> <Idih>
0.007

> <Tether>
0.000

$$$$
VeraChem MOL file


 22 21  0  0  0  0  0  0  0  0999 V2000     
   19.5769   21.8260   23.5612 C   0  0  0  0  0  0  0  0  0  0  0  0
   19.1327   22.2098   22.4972 O   0  5  0  0  0  0  0  0  0  0  0  0
   20.4792   22.3849   24.1536 O   0  0  0  0  0  0  0  0  0  0  0  0
   18.9493   20.5929   24.2052 C   0  0  0  0  0  0  0  0  0  0  0  0
   17.9961   20.3830   23.7071 H   0  0  0  0  0  0  0  0  0  0  0  0
   18.7051   20.8556   25.2411 H   0  0  0  0  0  0  0  0  0  0  0  0
   19.8630   19.3367   24.1968 C   0  0  0  0  0  0  0  0  0  0  0  0
   20.7719   19.5605   24.7722 H   0  0  0  0  0  0  0  0  0  0  0  0
   19.3569   18.5193   24.7279 H   0  0  0  0  0  0  0  0  0  0  0  0
   20.2762   18.8491   22.7860 C   0  0  0  0  0  0  0  0  0  0  0  0
   20.9897   18.0245   22.9086 H   0  0  0  0  0  0  0  0  0  0  0  0
   20.8148   19.6491   22.2600 H   0  0  0  0  0  0  0  0  0  0  0  0
   19.0812   18.3737   21.9238 C   0  0  0  0  0  0  0  0  0  0  0  0
   18.5283   17.5872   22.4550 H   0  0  0  0  0  0  0  0  0  0  0  0
   18.3821   19.2080   21.7822 H   0  0  0  0  0  0  0  0  0  0  0  0
   19.4985   17.8598   20.5260 C   0  0  0  0  0  0  0  0  0  0  0  0
   20.0652   18.6394   19.9984 H   0  0  0  0  0  0  0  0  0  0  0  0
   18.5913   17.6811   19.9325 H   0  0  0  0  0  0  0  0  0  0  0  0
   20.3242   16.5556   20.5718 C   0  0  0  0  0  0  0  0  0  0  0  0
   21.2987   16.7134   21.0502 H   0  0  0  0  0  0  0  0  0  0  0  0
   20.5104   16.1841   19.5558 H   0  0  0  0  0  0  0  0  0  0  0  0
   19.7908   15.7720   21.1254 H   0  0  0  0  0  0  0  0  0  0  0  0
  1  2  1  0  0  0  0
  1  3  2  0  0  0  0
  1  4  1  0  0  0  0
  4  5  1  0  0  0  0
  4  6  1  0  0  0  0
  4  7  1  0  0  0  0
  7  8  1  0  0  0  0
  7  9  1  0  0  0  0
  7 10  1  0  0  0  0
 10 11  1  0  0  0  0
 10 12  1  0  0  0  0
 10 13  1  0  0  0  0
 13 14  1  0  0  0  0
 13 15  1  0  0  0  0
 13 16  1  0  0  0  0
 16 17  1  0  0  0  0
 16 18  1  0  0  0  0
 16 19  1  0  0  0  0
 19 20  1  0  0  0  0
 19 21  1  0  0  0  0
 19 22  1  0  0  0  0
M  END
> <VConfSearch Rank>
755

> <Conf_Id>
93

> <Delta U+W>
1.836

> <U+W>
-51.323

> <U>
10.427

> <W>
-61.751

> <W(PB)>
-63.980

> <W(SA)>
2.230

> <Valence>
8.446

> <Coulomb>
1.306

> <VdW>
0.676

> <VdW6>
-8.928

> <VdW12>
9.604

> <Bond>
0.209

> <Angle>
3.066

> <Pdih>
5.170

> <Idih>
0.001

> <Tether>
0.000

$$$$
VeraChem MOL file


 22 21  0  0  0  0  0  0  0  0999 V2000     
   16.6470   18.7301   22.4157 C   0  0  0  0  0  0  0  0  0  0  0  0
   15.8641   19.2486   23.1874 O   0  5  0  0  0  0  0  0  0  0  0  0
   16.8093   17.5289   22.3290 O   0  0  0  0  0  0  0  0  0  0  0  0
   17.4467   19.6375   21.4849 C   0  0  0  0  0  0  0  0  0  0  0  0
   16.7350   20.3193   21.0049 H   0  0  0  0  0  0  0  0  0  0  0  0
   17.8777   19.0269   20.6836 H   0  0  0  0  0  0  0  0  0  0  0  0
   18.5494   20.4670   22.1986 C   0  0  0  0  0  0  0  0  0  0  0  0
   19.0323   21.1292   21.4674 H   0  0  0  0  0  0  0  0  0  0  0  0
   18.0706   21.1234   22.9383 H   0  0  0  0  0  0  0  0  0  0  0  0
   19.6321   19.6207   22.9129 C   0  0  0  0  0  0  0  0  0  0  0  0
   19.1618   18.9804   23.6716 H   0  0  0  0  0  0  0  0  0  0  0  0
   20.2948   20.3071   23.4550 H   0  0  0  0  0  0  0  0  0  0  0  0
   20.4708   18.7496   21.9459 C   0  0  0  0  0  0  0  0  0  0  0  0
   19.8082   18.0471   21.4240 H   0  0  0  0  0  0  0  0  0  0  0  0
   20.9269   19.3839   21.1738 H   0  0  0  0  0  0  0  0  0  0  0  0
   21.5708   17.9274   22.6572 C   0  0  0  0  0  0  0  0  0  0  0  0
   22.0177   17.2357   21.9298 H   0  0  0  0  0  0  0  0  0  0  0  0
   21.1189   17.3035   23.4407 H   0  0  0  0  0  0  0  0  0  0  0  0
   22.6921   18.7976   23.2656 C   0  0  0  0  0  0  0  0  0  0  0  0
   22.3164   19.4218   24.0857 H   0  0  0  0  0  0  0  0  0  0  0  0
   23.1350   19.4552   22.5063 H   0  0  0  0  0  0  0  0  0  0  0  0
   23.4915   18.1640   23.6712 H   0  0  0  0  0  0  0  0  0  0  0  0
  1  2  1  0  0  0  0
  1  3  2  0  0  0  0
  1  4  1  0  0  0  0
  4  5  1  0  0  0  0
  4  6  1  0  0  0  0
  4  7  1  0  0  0  0
  7  8  1  0  0  0  0
  7  9  1  0  0  0  0
  7 10  1  0  0  0  0
 10 11  1  0  0  0  0
 10 12  1  0  0  0  0
 10 13  1  0  0  0  0
 13 14  1  0  0  0  0
 13 15  1  0  0  0  0
 13 16  1  0  0  0  0
 16 17  1  0  0  0  0
 16 18  1  0  0  0  0
 16 19  1  0  0  0  0
 19 20  1  0  0  0  0
 19 21  1  0  0  0  0
 19 22  1  0  0  0  0
M  END
> <VConfSearch Rank>
756

> <Conf_Id>
70

> <Delta U+W>
1.803

> <U+W>
-51.356

> <U>
10.428

> <W>
-61.784

> <W(PB)>
-64.014

> <W(SA)>
2.230

> <Valence>
8.445

> <Coulomb>
1.306

> <VdW>
0.676

> <VdW6>
-8.929

> <VdW12>
9.605

> <Bond>
0.209

> <Angle>
3.066

> <Pdih>
5.170

> <Idih>
0.001

> <Tether>
0.000

$$$$
VeraChem MOL file


 22 21  0  0  0  0  0  0  0  0999 V2000     
   19.9577   17.0834   19.6930 C   0  0  0  0  0  0  0  0  0  0  0  0
   18.8085   16.7793   19.4403 O   0  5  0  0  0  0  0  0  0  0  0  0
   20.8398   16.2715   19.8918 O   0  0  0  0  0  0  0  0  0  0  0  0
   20.3149   18.5663   19.7420 C   0  0  0  0  0  0  0  0  0  0  0  0
   19.8510   19.0448   18.8714 H   0  0  0  0  0  0  0  0  0  0  0  0
   21.3999   18.6694   19.6200 H   0  0  0  0  0  0  0  0  0  0  0  0
   19.8500   19.2834   21.0361 C   0  0  0  0  0  0  0  0  0  0  0  0
   20.0288   20.3619   20.9303 H   0  0  0  0  0  0  0  0  0  0  0  0
   18.7657   19.1502   21.1464 H   0  0  0  0  0  0  0  0  0  0  0  0
   20.5838   18.7652   22.2961 C   0  0  0  0  0  0  0  0  0  0  0  0
   21.6677   18.8268   22.1284 H   0  0  0  0  0  0  0  0  0  0  0  0
   20.3549   17.7016   22.4503 H   0  0  0  0  0  0  0  0  0  0  0  0
   20.2393   19.5577   23.5793 C   0  0  0  0  0  0  0  0  0  0  0  0
   20.8910   19.2061   24.3908 H   0  0  0  0  0  0  0  0  0  0  0  0
   20.4746   20.6204   23.4304 H   0  0  0  0  0  0  0  0  0  0  0  0
   18.7654   19.4069   24.0188 C   0  0  0  0  0  0  0  0  0  0  0  0
   18.5152   18.3415   24.1165 H   0  0  0  0  0  0  0  0  0  0  0  0
   18.0978   19.8240   23.2536 H   0  0  0  0  0  0  0  0  0  0  0  0
   18.4993   20.1206   25.3595 C   0  0  0  0  0  0  0  0  0  0  0  0
   19.1241   19.7015   26.1591 H   0  0  0  0  0  0  0  0  0  0  0  0
   17.4485   20.0070   25.6562 H   0  0  0  0  0  0  0  0  0  0  0  0
   18.7156   21.1942   25.2822 H   0  0  0  0  0  0  0  0  0  0  0  0
  1  2  1  0  0  0  0
  1  3  2  0  0  0  0
  1  4  1  0  0  0  0
  4  5  1  0  0  0  0
  4  6  1  0  0  0  0
  4  7  1  0  0  0  0
  7  8  1  0  0  0  0
  7  9  1  0  0  0  0
  7 10  1  0  0  0  0
 10 11  1  0  0  0  0
 10 12  1  0  0  0  0
 10 13  1  0  0  0  0
 13 14  1  0  0  0  0
 13 15  1  0  0  0  0
 13 16  1  0  0  0  0
 16 17  1  0  0  0  0
 16 18  1  0  0  0  0
 16 19  1  0  0  0  0
 19 20  1  0  0  0  0
 19 21  1  0  0  0  0
 19 22  1  0  0  0  0
M  END
> <VConfSearch Rank>
757

> <Conf_Id>
85

> <Delta U+W>
0.707

> <U+W>
-52.452

> <U>
8.925

> <W>
-61.378

> <W(PB)>
-63.661

> <W(SA)>
2.283

> <Valence>
7.881

> <Coulomb>
0.349

> <VdW>
0.695

> <VdW6>
-8.049

> <VdW12>
8.743

> <Bond>
0.156

> <Angle>
2.660

> <Pdih>
5.064

> <Idih>
0.001

> <Tether>
0.000

$$$$
VeraChem MOL file


 22 21  0  0  0  0  0  0  0  0999 V2000     
   17.5463   17.6960   24.4710 C   0  0  0  0  0  0  0  0  0  0  0  0
   17.0087   16.6914   24.0484 O   0  5  0  0  0  0  0  0  0  0  0  0
   17.9650   17.8072   25.6065 O   0  0  0  0  0  0  0  0  0  0  0  0
   17.6833   18.8925   23.5334 C   0  0  0  0  0  0  0  0  0  0  0  0
   17.3651   19.7818   24.0901 H   0  0  0  0  0  0  0  0  0  0  0  0
   16.9787   18.7694   22.7021 H   0  0  0  0  0  0  0  0  0  0  0  0
   19.1197   19.1096   22.9901 C   0  0  0  0  0  0  0  0  0  0  0  0
   19.1475   20.0708   22.4617 H   0  0  0  0  0  0  0  0  0  0  0  0
   19.8213   19.1841   23.8324 H   0  0  0  0  0  0  0  0  0  0  0  0
   19.5688   17.9847   22.0288 C   0  0  0  0  0  0  0  0  0  0  0  0
   18.9125   17.9740   21.1480 H   0  0  0  0  0  0  0  0  0  0  0  0
   19.4343   17.0128   22.5230 H   0  0  0  0  0  0  0  0  0  0  0  0
   21.0449   18.0912   21.5704 C   0  0  0  0  0  0  0  0  0  0  0  0
   21.7151   18.0094   22.4370 H   0  0  0  0  0  0  0  0  0  0  0  0
   21.2596   17.2146   20.9439 H   0  0  0  0  0  0  0  0  0  0  0  0
   21.3801   19.3624   20.7507 C   0  0  0  0  0  0  0  0  0  0  0  0
   20.4861   19.7229   20.2236 H   0  0  0  0  0  0  0  0  0  0  0  0
   22.1072   19.0959   19.9713 H   0  0  0  0  0  0  0  0  0  0  0  0
   21.9914   20.4947   21.6059 C   0  0  0  0  0  0  0  0  0  0  0  0
   21.3091   20.8218   22.3986 H   0  0  0  0  0  0  0  0  0  0  0  0
   22.2211   21.3668   20.9803 H   0  0  0  0  0  0  0  0  0  0  0  0
   22.9259   20.1653   22.0785 H   0  0  0  0  0  0  0  0  0  0  0  0
  1  2  1  0  0  0  0
  1  3  2  0  0  0  0
  1  4  1  0  0  0  0
  4  5  1  0  0  0  0
  4  6  1  0  0  0  0
  4  7  1  0  0  0  0
  7  8  1  0  0  0  0
  7  9  1  0  0  0  0
  7 10  1  0  0  0  0
 10 11  1  0  0  0  0
 10 12  1  0  0  0  0
 10 13  1  0  0  0  0
 13 14  1  0  0  0  0
 13 15  1  0  0  0  0
 13 16  1  0  0  0  0
 16 17  1  0  0  0  0
 16 18  1  0  0  0  0
 16 19  1  0  0  0  0
 19 20  1  0  0  0  0
 19 21  1  0  0  0  0
 19 22  1  0  0  0  0
M  END
> <VConfSearch Rank>
758

> <Conf_Id>
82

> <Delta U+W>
3.438

> <U+W>
-49.721

> <U>
11.773

> <W>
-61.495

> <W(PB)>
-63.749

> <W(SA)>
2.254

> <Valence>
10.419

> <Coulomb>
0.565

> <VdW>
0.789

> <VdW6>
-8.847

> <VdW12>
9.636

> <Bond>
0.200

> <Angle>
3.187

> <Pdih>
7.032

> <Idih>
0.001

> <Tether>
0.000

$$$$
VeraChem MOL file


 22 21  0  0  0  0  0  0  0  0999 V2000     
   17.8266   17.3025   24.4215 C   0  0  0  0  0  0  0  0  0  0  0  0
   16.7162   17.3370   23.9289 O   0  5  0  0  0  0  0  0  0  0  0  0
   18.3183   16.2997   24.9006 O   0  0  0  0  0  0  0  0  0  0  0  0
   18.6369   18.5953   24.4604 C   0  0  0  0  0  0  0  0  0  0  0  0
   19.4280   18.4912   25.2129 H   0  0  0  0  0  0  0  0  0  0  0  0
   17.9678   19.3897   24.8113 H   0  0  0  0  0  0  0  0  0  0  0  0
   19.2480   19.0006   23.0937 C   0  0  0  0  0  0  0  0  0  0  0  0
   18.4511   19.0552   22.3392 H   0  0  0  0  0  0  0  0  0  0  0  0
   19.6705   20.0087   23.1896 H   0  0  0  0  0  0  0  0  0  0  0  0
   20.3526   18.0261   22.6232 C   0  0  0  0  0  0  0  0  0  0  0  0
   19.9581   17.0008   22.6350 H   0  0  0  0  0  0  0  0  0  0  0  0
   21.1838   18.0427   23.3411 H   0  0  0  0  0  0  0  0  0  0  0  0
   20.8941   18.3169   21.2010 C   0  0  0  0  0  0  0  0  0  0  0  0
   21.6242   17.5324   20.9594 H   0  0  0  0  0  0  0  0  0  0  0  0
   20.0878   18.2112   20.4623 H   0  0  0  0  0  0  0  0  0  0  0  0
   21.5925   19.6904   21.0405 C   0  0  0  0  0  0  0  0  0  0  0  0
   22.4428   19.5738   20.3544 H   0  0  0  0  0  0  0  0  0  0  0  0
   22.0171   20.0166   21.9999 H   0  0  0  0  0  0  0  0  0  0  0  0
   20.6629   20.7828   20.4664 C   0  0  0  0  0  0  0  0  0  0  0  0
   20.2918   20.4968   19.4737 H   0  0  0  0  0  0  0  0  0  0  0  0
   21.2048   21.7315   20.3614 H   0  0  0  0  0  0  0  0  0  0  0  0
   19.7960   20.9623   21.1122 H   0  0  0  0  0  0  0  0  0  0  0  0
  1  2  1  0  0  0  0
  1  3  2  0  0  0  0
  1  4  1  0  0  0  0
  4  5  1  0  0  0  0
  4  6  1  0  0  0  0
  4  7  1  0  0  0  0
  7  8  1  0  0  0  0
  7  9  1  0  0  0  0
  7 10  1  0  0  0  0
 10 11  1  0  0  0  0
 10 12  1  0  0  0  0
 10 13  1  0  0  0  0
 13 14  1  0  0  0  0
 13 15  1  0  0  0  0
 13 16  1  0  0  0  0
 16 17  1  0  0  0  0
 16 18  1  0  0  0  0
 16 19  1  0  0  0  0
 19 20  1  0  0  0  0
 19 21  1  0  0  0  0
 19 22  1  0  0  0  0
M  END
> <VConfSearch Rank>
759

> <Conf_Id>
94

> <Delta U+W>
3.471

> <U+W>
-49.688

> <U>
11.773

> <W>
-61.461

> <W(PB)>
-63.710

> <W(SA)>
2.248

> <Valence>
10.419

> <Coulomb>
0.566

> <VdW>
0.789

> <VdW6>
-8.847

> <VdW12>
9.636

> <Bond>
0.200

> <Angle>
3.187

> <Pdih>
7.032

> <Idih>
0.001

> <Tether>
0.000

$$$$
VeraChem MOL file


 22 21  0  0  0  0  0  0  0  0999 V2000     
   21.4520   21.7617   23.4591 C   0  0  0  0  0  0  0  0  0  0  0  0
   21.1508   22.9381   23.5046 O   0  5  0  0  0  0  0  0  0  0  0  0
   22.5950   21.3638   23.3503 O   0  0  0  0  0  0  0  0  0  0  0  0
   20.3324   20.7291   23.5226 C   0  0  0  0  0  0  0  0  0  0  0  0
   19.5315   21.1326   24.1535 H   0  0  0  0  0  0  0  0  0  0  0  0
   20.7271   19.8394   24.0263 H   0  0  0  0  0  0  0  0  0  0  0  0
   19.7762   20.3600   22.1230 C   0  0  0  0  0  0  0  0  0  0  0  0
   19.4652   21.2817   21.6124 H   0  0  0  0  0  0  0  0  0  0  0  0
   20.5794   19.9297   21.5101 H   0  0  0  0  0  0  0  0  0  0  0  0
   18.5679   19.3915   22.1736 C   0  0  0  0  0  0  0  0  0  0  0  0
   18.2039   19.2242   21.1514 H   0  0  0  0  0  0  0  0  0  0  0  0
   17.7423   19.8827   22.7062 H   0  0  0  0  0  0  0  0  0  0  0  0
   18.8467   18.0224   22.8482 C   0  0  0  0  0  0  0  0  0  0  0  0
   19.0522   18.1780   23.9153 H   0  0  0  0  0  0  0  0  0  0  0  0
   17.9295   17.4195   22.8080 H   0  0  0  0  0  0  0  0  0  0  0  0
   20.0072   17.2062   22.2276 C   0  0  0  0  0  0  0  0  0  0  0  0
   20.1269   16.2764   22.8004 H   0  0  0  0  0  0  0  0  0  0  0  0
   20.9536   17.7529   22.3346 H   0  0  0  0  0  0  0  0  0  0  0  0
   19.7762   16.8493   20.7434 C   0  0  0  0  0  0  0  0  0  0  0  0
   18.8261   16.3157   20.6110 H   0  0  0  0  0  0  0  0  0  0  0  0
   20.5823   16.2026   20.3737 H   0  0  0  0  0  0  0  0  0  0  0  0
   19.7567   17.7490   20.1156 H   0  0  0  0  0  0  0  0  0  0  0  0
  1  2  1  0  0  0  0
  1  3  2  0  0  0  0
  1  4  1  0  0  0  0
  4  5  1  0  0  0  0
  4  6  1  0  0  0  0
  4  7  1  0  0  0  0
  7  8  1  0  0  0  0
  7  9  1  0  0  0  0
  7 10  1  0  0  0  0
 10 11  1  0  0  0  0
 10 12  1  0  0  0  0
 10 13  1  0  0  0  0
 13 14  1  0  0  0  0
 13 15  1  0  0  0  0
 13 16  1  0  0  0  0
 16 17  1  0  0  0  0
 16 18  1  0  0  0  0
 16 19  1  0  0  0  0
 19 20  1  0  0  0  0
 19 21  1  0  0  0  0
 19 22  1  0  0  0  0
M  END
> <VConfSearch Rank>
760

> <Conf_Id>
56

> <Delta U+W>
0.853

> <U+W>
-52.307

> <U>
8.874

> <W>
-61.181

> <W(PB)>
-63.413

> <W(SA)>
2.232

> <Valence>
8.479

> <Coulomb>
-0.357

> <VdW>
0.753

> <VdW6>
-9.081

> <VdW12>
9.833

> <Bond>
0.221

> <Angle>
3.208

> <Pdih>
5.050

> <Idih>
0.000

> <Tether>
0.000

$$$$
VeraChem MOL file


 22 21  0  0  0  0  0  0  0  0999 V2000     
   18.3100   15.2765   22.9633 C   0  0  0  0  0  0  0  0  0  0  0  0
   17.4705   15.7186   23.7237 O   0  5  0  0  0  0  0  0  0  0  0  0
   18.4243   14.0924   22.7172 O   0  0  0  0  0  0  0  0  0  0  0  0
   19.2827   16.2310   22.2687 C   0  0  0  0  0  0  0  0  0  0  0  0
   19.1709   16.0825   21.1882 H   0  0  0  0  0  0  0  0  0  0  0  0
   20.2979   15.9126   22.5330 H   0  0  0  0  0  0  0  0  0  0  0  0
   19.0974   17.7327   22.6136 C   0  0  0  0  0  0  0  0  0  0  0  0
   18.0764   18.0434   22.3522 H   0  0  0  0  0  0  0  0  0  0  0  0
   19.2047   17.8734   23.6981 H   0  0  0  0  0  0  0  0  0  0  0  0
   20.1176   18.6226   21.8708 C   0  0  0  0  0  0  0  0  0  0  0  0
   20.0085   18.4802   20.7869 H   0  0  0  0  0  0  0  0  0  0  0  0
   21.1375   18.3099   22.1337 H   0  0  0  0  0  0  0  0  0  0  0  0
   19.9316   20.1159   22.2155 C   0  0  0  0  0  0  0  0  0  0  0  0
   18.9118   20.4290   21.9529 H   0  0  0  0  0  0  0  0  0  0  0  0
   20.0407   20.2589   23.2994 H   0  0  0  0  0  0  0  0  0  0  0  0
   20.9508   21.0058   21.4735 C   0  0  0  0  0  0  0  0  0  0  0  0
   20.8432   20.8670   20.3888 H   0  0  0  0  0  0  0  0  0  0  0  0
   21.9723   20.6968   21.7353 H   0  0  0  0  0  0  0  0  0  0  0  0
   20.7618   22.4962   21.8204 C   0  0  0  0  0  0  0  0  0  0  0  0
   19.7577   22.8406   21.5398 H   0  0  0  0  0  0  0  0  0  0  0  0
   21.4940   23.1141   21.2845 H   0  0  0  0  0  0  0  0  0  0  0  0
   20.8952   22.6691   22.8964 H   0  0  0  0  0  0  0  0  0  0  0  0
  1  2  1  0  0  0  0
  1  3  2  0  0  0  0
  1  4  1  0  0  0  0
  4  5  1  0  0  0  0
  4  6  1  0  0  0  0
  4  7  1  0  0  0  0
  7  8  1  0  0  0  0
  7  9  1  0  0  0  0
  7 10  1  0  0  0  0
 10 11  1  0  0  0  0
 10 12  1  0  0  0  0
 10 13  1  0  0  0  0
 13 14  1  0  0  0  0
 13 15  1  0  0  0  0
 13 16  1  0  0  0  0
 16 17  1  0  0  0  0
 16 18  1  0  0  0  0
 16 19  1  0  0  0  0
 19 20  1  0  0  0  0
 19 21  1  0  0  0  0
 19 22  1  0  0  0  0
M  END
> <VConfSearch Rank>
761

> <Conf_Id>
0

> <Delta U+W>
0.000

> <U+W>
-53.159

> <U>
6.763

> <W>
-59.922

> <W(PB)>
-62.256

> <W(SA)>
2.334

> <Valence>
7.600

> <Coulomb>
-2.139

> <VdW>
1.302

> <VdW6>
-6.786

> <VdW12>
8.088

> <Bond>
0.134

> <Angle>
2.720

> <Pdih>
4.746

> <Idih>
0.000

> <Tether>
0.000

$$$$
VeraChem MOL file


 22 21  0  0  0  0  0  0  0  0999 V2000     
   21.9242   15.9067   23.6591 C   0  0  0  0  0  0  0  0  0  0  0  0
   22.8184   15.5185   22.9338 O   0  5  0  0  0  0  0  0  0  0  0  0
   21.2965   15.1788   24.4024 O   0  0  0  0  0  0  0  0  0  0  0  0
   21.5543   17.3851   23.6177 C   0  0  0  0  0  0  0  0  0  0  0  0
   22.4650   17.9584   23.4064 H   0  0  0  0  0  0  0  0  0  0  0  0
   21.2110   17.6785   24.6171 H   0  0  0  0  0  0  0  0  0  0  0  0
   20.4656   17.7037   22.5636 C   0  0  0  0  0  0  0  0  0  0  0  0
   20.8194   17.3921   21.5709 H   0  0  0  0  0  0  0  0  0  0  0  0
   19.5654   17.1122   22.7815 H   0  0  0  0  0  0  0  0  0  0  0  0
   20.1089   19.2057   22.5414 C   0  0  0  0  0  0  0  0  0  0  0  0
   21.0111   19.7941   22.3245 H   0  0  0  0  0  0  0  0  0  0  0  0
   19.7569   19.5142   23.5354 H   0  0  0  0  0  0  0  0  0  0  0  0
   19.0234   19.5202   21.4897 C   0  0  0  0  0  0  0  0  0  0  0  0
   19.3751   19.2119   20.4956 H   0  0  0  0  0  0  0  0  0  0  0  0
   18.1210   18.9320   21.7063 H   0  0  0  0  0  0  0  0  0  0  0  0
   18.6664   21.0213   21.4670 C   0  0  0  0  0  0  0  0  0  0  0  0
   19.5663   21.6129   21.2486 H   0  0  0  0  0  0  0  0  0  0  0  0
   18.3123   21.3330   22.4594 H   0  0  0  0  0  0  0  0  0  0  0  0
   17.5821   21.3312   20.4155 C   0  0  0  0  0  0  0  0  0  0  0  0
   16.6589   20.7762   20.6279 H   0  0  0  0  0  0  0  0  0  0  0  0
   17.9224   21.0580   19.4081 H   0  0  0  0  0  0  0  0  0  0  0  0
   17.3407   22.4021   20.4129 H   0  0  0  0  0  0  0  0  0  0  0  0
  1  2  1  0  0  0  0
  1  3  2  0  0  0  0
  1  4  1  0  0  0  0
  4  5  1  0  0  0  0
  4  6  1  0  0  0  0
  4  7  1  0  0  0  0
  7  8  1  0  0  0  0
  7  9  1  0  0  0  0
  7 10  1  0  0  0  0
 10 11  1  0  0  0  0
 10 12  1  0  0  0  0
 10 13  1  0  0  0  0
 13 14  1  0  0  0  0
 13 15  1  0  0  0  0
 13 16  1  0  0  0  0
 16 17  1  0  0  0  0
 16 18  1  0  0  0  0
 16 19  1  0  0  0  0
 19 20  1  0  0  0  0
 19 21  1  0  0  0  0
 19 22  1  0  0  0  0
M  END
> <VConfSearch Rank>
762

> <Conf_Id>
10

> <Delta U+W>
-1.291

> <U+W>
-54.451

> <U>
5.779

> <W>
-60.230

> <W(PB)>
-62.557

> <W(SA)>
2.328

> <Valence>
7.101

> <Coulomb>
-2.079

> <VdW>
0.757

> <VdW6>
-6.496

> <VdW12>
7.253

> <Bond>
0.100

> <Angle>
2.262

> <Pdih>
4.738

> <Idih>
0.001

> <Tether>
0.000

$$$$
VeraChem MOL file


 22 21  0  0  0  0  0  0  0  0999 V2000     
   19.7115   20.9056   18.8615 C   0  0  0  0  0  0  0  0  0  0  0  0
   19.2370   22.0165   18.9933 O   0  5  0  0  0  0  0  0  0  0  0  0
   20.4958   20.6087   17.9823 O   0  0  0  0  0  0  0  0  0  0  0  0
   19.3170   19.8304   19.8677 C   0  0  0  0  0  0  0  0  0  0  0  0
   19.3217   18.8627   19.3518 H   0  0  0  0  0  0  0  0  0  0  0  0
   18.2854   20.0232   20.1857 H   0  0  0  0  0  0  0  0  0  0  0  0
   20.2559   19.7843   21.0984 C   0  0  0  0  0  0  0  0  0  0  0  0
   21.2862   19.6039   20.7618 H   0  0  0  0  0  0  0  0  0  0  0  0
   20.2497   20.7638   21.5965 H   0  0  0  0  0  0  0  0  0  0  0  0
   19.8355   18.6882   22.1015 C   0  0  0  0  0  0  0  0  0  0  0  0
   19.8446   17.7101   21.6015 H   0  0  0  0  0  0  0  0  0  0  0  0
   18.8032   18.8739   22.4255 H   0  0  0  0  0  0  0  0  0  0  0  0
   20.7735   18.6488   23.3298 C   0  0  0  0  0  0  0  0  0  0  0  0
   21.8100   18.5333   22.9845 H   0  0  0  0  0  0  0  0  0  0  0  0
   20.7279   19.6091   23.8615 H   0  0  0  0  0  0  0  0  0  0  0  0
   20.4524   17.4983   24.3120 C   0  0  0  0  0  0  0  0  0  0  0  0
   21.2305   17.4692   25.0871 H   0  0  0  0  0  0  0  0  0  0  0  0
   20.5032   16.5355   23.7851 H   0  0  0  0  0  0  0  0  0  0  0  0
   19.0755   17.6444   24.9955 C   0  0  0  0  0  0  0  0  0  0  0  0
   18.9337   16.8554   25.7453 H   0  0  0  0  0  0  0  0  0  0  0  0
   18.2570   17.5630   24.2694 H   0  0  0  0  0  0  0  0  0  0  0  0
   18.9902   18.6134   25.5042 H   0  0  0  0  0  0  0  0  0  0  0  0
  1  2  1  0  0  0  0
  1  3  2  0  0  0  0
  1  4  1  0  0  0  0
  4  5  1  0  0  0  0
  4  6  1  0  0  0  0
  4  7  1  0  0  0  0
  7  8  1  0  0  0  0
  7  9  1  0  0  0  0
  7 10  1  0  0  0  0
 10 11  1  0  0  0  0
 10 12  1  0  0  0  0
 10 13  1  0  0  0  0
 13 14  1  0  0  0  0
 13 15  1  0  0  0  0
 13 16  1  0  0  0  0
 16 17  1  0  0  0  0
 16 18  1  0  0  0  0
 16 19  1  0  0  0  0
 19 20  1  0  0  0  0
 19 21  1  0  0  0  0
 19 22  1  0  0  0  0
M  END
> <VConfSearch Rank>
763

> <Conf_Id>
37

> <Delta U+W>
-0.345

> <U+W>
-53.504

> <U>
6.751

> <W>
-60.255

> <W(PB)>
-62.592

> <W(SA)>
2.336

> <Valence>
7.602

> <Coulomb>
-1.744

> <VdW>
0.894

> <VdW6>
-7.110

> <VdW12>
8.004

> <Bond>
0.131

> <Angle>
2.489

> <Pdih>
4.982

> <Idih>
0.001

> <Tether>
0.000

$$$$
VeraChem MOL file


 22 21  0  0  0  0  0  0  0  0999 V2000     
   21.4091   21.9534   24.1661 C   0  0  0  0  0  0  0  0  0  0  0  0
   20.5895   22.6251   24.7607 O   0  5  0  0  0  0  0  0  0  0  0  0
   22.4768   22.3834   23.7769 O   0  0  0  0  0  0  0  0  0  0  0  0
   21.0698   20.4963   23.8733 C   0  0  0  0  0  0  0  0  0  0  0  0
   20.4473   20.1198   24.6940 H   0  0  0  0  0  0  0  0  0  0  0  0
   22.0030   19.9204   23.8838 H   0  0  0  0  0  0  0  0  0  0  0  0
   20.3410   20.3082   22.5200 C   0  0  0  0  0  0  0  0  0  0  0  0
   19.4154   20.9006   22.5208 H   0  0  0  0  0  0  0  0  0  0  0  0
   20.9714   20.7023   21.7109 H   0  0  0  0  0  0  0  0  0  0  0  0
   20.0089   18.8251   22.2470 C   0  0  0  0  0  0  0  0  0  0  0  0
   19.3854   18.4398   23.0643 H   0  0  0  0  0  0  0  0  0  0  0  0
   20.9361   18.2359   22.2446 H   0  0  0  0  0  0  0  0  0  0  0  0
   19.2780   18.6433   20.8968 C   0  0  0  0  0  0  0  0  0  0  0  0
   18.3255   19.1904   20.9147 H   0  0  0  0  0  0  0  0  0  0  0  0
   19.8824   19.0968   20.0993 H   0  0  0  0  0  0  0  0  0  0  0  0
   19.0172   17.1630   20.5334 C   0  0  0  0  0  0  0  0  0  0  0  0
   19.9686   16.6138   20.5082 H   0  0  0  0  0  0  0  0  0  0  0  0
   18.6056   17.1172   19.5157 H   0  0  0  0  0  0  0  0  0  0  0  0
   18.0372   16.4602   21.4977 C   0  0  0  0  0  0  0  0  0  0  0  0
   17.0884   17.0087   21.5624 H   0  0  0  0  0  0  0  0  0  0  0  0
   18.4579   16.3789   22.5077 H   0  0  0  0  0  0  0  0  0  0  0  0
   17.8167   15.4437   21.1472 H   0  0  0  0  0  0  0  0  0  0  0  0
  1  2  1  0  0  0  0
  1  3  2  0  0  0  0
  1  4  1  0  0  0  0
  4  5  1  0  0  0  0
  4  6  1  0  0  0  0
  4  7  1  0  0  0  0
  7  8  1  0  0  0  0
  7  9  1  0  0  0  0
  7 10  1  0  0  0  0
 10 11  1  0  0  0  0
 10 12  1  0  0  0  0
 10 13  1  0  0  0  0
 13 14  1  0  0  0  0
 13 15  1  0  0  0  0
 13 16  1  0  0  0  0
 16 17  1  0  0  0  0
 16 18  1  0  0  0  0
 16 19  1  0  0  0  0
 19 20  1  0  0  0  0
 19 21  1  0  0  0  0
 19 22  1  0  0  0  0
M  END
> <VConfSearch Rank>
764

> <Conf_Id>
38

> <Delta U+W>
-0.439

> <U+W>
-53.598

> <U>
6.751

> <W>
-60.350

> <W(PB)>
-62.659

> <W(SA)>
2.309

> <Valence>
7.602

> <Coulomb>
-1.744

> <VdW>
0.893

> <VdW6>
-7.110

> <VdW12>
8.004

> <Bond>
0.131

> <Angle>
2.489

> <Pdih>
4.981

> <Idih>
0.001

> <Tether>
0.000

$$$$
VeraChem MOL file


 22 21  0  0  0  0  0  0  0  0999 V2000     
   19.4436   16.0011   20.0032 C   0  0  0  0  0  0  0  0  0  0  0  0
   20.3723   15.3892   19.5139 O   0  5  0  0  0  0  0  0  0  0  0  0
   18.3088   15.9607   19.5705 O   0  0  0  0  0  0  0  0  0  0  0  0
   19.7221   16.8861   21.2130 C   0  0  0  0  0  0  0  0  0  0  0  0
   20.5324   16.4263   21.7913 H   0  0  0  0  0  0  0  0  0  0  0  0
   18.8264   16.8781   21.8440 H   0  0  0  0  0  0  0  0  0  0  0  0
   20.1025   18.3373   20.8193 C   0  0  0  0  0  0  0  0  0  0  0  0
   20.9415   18.3001   20.1106 H   0  0  0  0  0  0  0  0  0  0  0  0
   19.2649   18.8045   20.2832 H   0  0  0  0  0  0  0  0  0  0  0  0
   20.5112   19.2204   22.0226 C   0  0  0  0  0  0  0  0  0  0  0  0
   20.8951   20.1709   21.6309 H   0  0  0  0  0  0  0  0  0  0  0  0
   21.3432   18.7464   22.5610 H   0  0  0  0  0  0  0  0  0  0  0  0
   19.3463   19.5014   23.0033 C   0  0  0  0  0  0  0  0  0  0  0  0
   18.5137   19.9737   22.4643 H   0  0  0  0  0  0  0  0  0  0  0  0
   18.9634   18.5518   23.3980 H   0  0  0  0  0  0  0  0  0  0  0  0
   19.7542   20.3876   24.2034 C   0  0  0  0  0  0  0  0  0  0  0  0
   20.5945   19.9242   24.7386 H   0  0  0  0  0  0  0  0  0  0  0  0
   18.9167   20.4240   24.9138 H   0  0  0  0  0  0  0  0  0  0  0  0
   20.1255   21.8319   23.8024 C   0  0  0  0  0  0  0  0  0  0  0  0
   21.0342   21.8575   23.1884 H   0  0  0  0  0  0  0  0  0  0  0  0
   20.3122   22.4418   24.6958 H   0  0  0  0  0  0  0  0  0  0  0  0
   19.3124   22.3037   23.2354 H   0  0  0  0  0  0  0  0  0  0  0  0
  1  2  1  0  0  0  0
  1  3  2  0  0  0  0
  1  4  1  0  0  0  0
  4  5  1  0  0  0  0
  4  6  1  0  0  0  0
  4  7  1  0  0  0  0
  7  8  1  0  0  0  0
  7  9  1  0  0  0  0
  7 10  1  0  0  0  0
 10 11  1  0  0  0  0
 10 12  1  0  0  0  0
 10 13  1  0  0  0  0
 13 14  1  0  0  0  0
 13 15  1  0  0  0  0
 13 16  1  0  0  0  0
 16 17  1  0  0  0  0
 16 18  1  0  0  0  0
 16 19  1  0  0  0  0
 19 20  1  0  0  0  0
 19 21  1  0  0  0  0
 19 22  1  0  0  0  0
M  END
> <VConfSearch Rank>
765

> <Conf_Id>
60

> <Delta U+W>
0.386

> <U+W>
-52.773

> <U>
7.689

> <W>
-60.463

> <W(PB)>
-62.772

> <W(SA)>
2.309

> <Valence>
8.197

> <Coulomb>
-1.561

> <VdW>
1.053

> <VdW6>
-7.737

> <VdW12>
8.790

> <Bond>
0.181

> <Angle>
2.780

> <Pdih>
5.235

> <Idih>
0.001

> <Tether>
0.000

$$$$
VeraChem MOL file


 22 21  0  0  0  0  0  0  0  0999 V2000     
   18.8697   15.3949   21.3891 C   0  0  0  0  0  0  0  0  0  0  0  0
   17.6941   15.2177   21.6400 O   0  5  0  0  0  0  0  0  0  0  0  0
   19.6698   14.4922   21.2424 O   0  0  0  0  0  0  0  0  0  0  0  0
   19.3735   16.8293   21.2744 C   0  0  0  0  0  0  0  0  0  0  0  0
   18.5608   17.4347   20.8580 H   0  0  0  0  0  0  0  0  0  0  0  0
   20.1956   16.8438   20.5488 H   0  0  0  0  0  0  0  0  0  0  0  0
   19.8484   17.4083   22.6326 C   0  0  0  0  0  0  0  0  0  0  0  0
   19.0049   17.4344   23.3363 H   0  0  0  0  0  0  0  0  0  0  0  0
   20.5914   16.7241   23.0653 H   0  0  0  0  0  0  0  0  0  0  0  0
   20.4801   18.8165   22.5206 C   0  0  0  0  0  0  0  0  0  0  0  0
   21.3176   18.7887   21.8104 H   0  0  0  0  0  0  0  0  0  0  0  0
   20.9085   19.0749   23.4974 H   0  0  0  0  0  0  0  0  0  0  0  0
   19.4708   19.9116   22.0960 C   0  0  0  0  0  0  0  0  0  0  0  0
   19.0440   19.6561   21.1179 H   0  0  0  0  0  0  0  0  0  0  0  0
   18.6324   19.9380   22.8052 H   0  0  0  0  0  0  0  0  0  0  0  0
   20.1016   21.3197   21.9886 C   0  0  0  0  0  0  0  0  0  0  0  0
   19.3603   22.0044   21.5540 H   0  0  0  0  0  0  0  0  0  0  0  0
   20.9482   21.2949   21.2886 H   0  0  0  0  0  0  0  0  0  0  0  0
   20.5655   21.8903   23.3465 C   0  0  0  0  0  0  0  0  0  0  0  0
   19.7430   21.8924   24.0735 H   0  0  0  0  0  0  0  0  0  0  0  0
   20.9146   22.9243   23.2286 H   0  0  0  0  0  0  0  0  0  0  0  0
   21.3946   21.3067   23.7655 H   0  0  0  0  0  0  0  0  0  0  0  0
  1  2  1  0  0  0  0
  1  3  2  0  0  0  0
  1  4  1  0  0  0  0
  4  5  1  0  0  0  0
  4  6  1  0  0  0  0
  4  7  1  0  0  0  0
  7  8  1  0  0  0  0
  7  9  1  0  0  0  0
  7 10  1  0  0  0  0
 10 11  1  0  0  0  0
 10 12  1  0  0  0  0
 10 13  1  0  0  0  0
 13 14  1  0  0  0  0
 13 15  1  0  0  0  0
 13 16  1  0  0  0  0
 16 17  1  0  0  0  0
 16 18  1  0  0  0  0
 16 19  1  0  0  0  0
 19 20  1  0  0  0  0
 19 21  1  0  0  0  0
 19 22  1  0  0  0  0
M  END
> <VConfSearch Rank>
766

> <Conf_Id>
28

> <Delta U+W>
0.351

> <U+W>
-52.808

> <U>
7.689

> <W>
-60.498

> <W(PB)>
-62.768

> <W(SA)>
2.270

> <Valence>
8.197

> <Coulomb>
-1.561

> <VdW>
1.053

> <VdW6>
-7.737

> <VdW12>
8.791

> <Bond>
0.181

> <Angle>
2.780

> <Pdih>
5.235

> <Idih>
0.001

> <Tether>
0.000

$$$$
VeraChem MOL file


 22 21  0  0  0  0  0  0  0  0999 V2000     
   16.9829   16.5775   22.4175 C   0  0  0  0  0  0  0  0  0  0  0  0
   17.2003   15.4389   22.7819 O   0  5  0  0  0  0  0  0  0  0  0  0
   16.0211   17.2272   22.7771 O   0  0  0  0  0  0  0  0  0  0  0  0
   17.9826   17.2341   21.4721 C   0  0  0  0  0  0  0  0  0  0  0  0
   17.4339   17.9286   20.8246 H   0  0  0  0  0  0  0  0  0  0  0  0
   18.4045   16.4539   20.8272 H   0  0  0  0  0  0  0  0  0  0  0  0
   19.1149   17.9818   22.2187 C   0  0  0  0  0  0  0  0  0  0  0  0
   18.6670   18.7424   22.8715 H   0  0  0  0  0  0  0  0  0  0  0  0
   19.6487   17.2751   22.8690 H   0  0  0  0  0  0  0  0  0  0  0  0
   20.1107   18.6415   21.2368 C   0  0  0  0  0  0  0  0  0  0  0  0
   19.5869   19.3864   20.6221 H   0  0  0  0  0  0  0  0  0  0  0  0
   20.4883   17.8770   20.5440 H   0  0  0  0  0  0  0  0  0  0  0  0
   21.3189   19.3062   21.9382 C   0  0  0  0  0  0  0  0  0  0  0  0
   21.8453   18.5607   22.5497 H   0  0  0  0  0  0  0  0  0  0  0  0
   22.0306   19.6347   21.1684 H   0  0  0  0  0  0  0  0  0  0  0  0
   20.9325   20.5194   22.8140 C   0  0  0  0  0  0  0  0  0  0  0  0
   20.2821   20.1993   23.6385 H   0  0  0  0  0  0  0  0  0  0  0  0
   20.3601   21.2414   22.2154 H   0  0  0  0  0  0  0  0  0  0  0  0
   22.1787   21.2137   23.3994 C   0  0  0  0  0  0  0  0  0  0  0  0
   22.8353   21.5824   22.6005 H   0  0  0  0  0  0  0  0  0  0  0  0
   22.7559   20.5210   24.0257 H   0  0  0  0  0  0  0  0  0  0  0  0
   21.8878   22.0705   24.0210 H   0  0  0  0  0  0  0  0  0  0  0  0
  1  2  1  0  0  0  0
  1  3  2  0  0  0  0
  1  4  1  0  0  0  0
  4  5  1  0  0  0  0
  4  6  1  0  0  0  0
  4  7  1  0  0  0  0
  7  8  1  0  0  0  0
  7  9  1  0  0  0  0
  7 10  1  0  0  0  0
 10 11  1  0  0  0  0
 10 12  1  0  0  0  0
 10 13  1  0  0  0  0
 13 14  1  0  0  0  0
 13 15  1  0  0  0  0
 13 16  1  0  0  0  0
 16 17  1  0  0  0  0
 16 18  1  0  0  0  0
 16 19  1  0  0  0  0
 19 20  1  0  0  0  0
 19 21  1  0  0  0  0
 19 22  1  0  0  0  0
M  END
> <VConfSearch Rank>
767

> <Conf_Id>
50

> <Delta U+W>
-0.486

> <U+W>
-53.646

> <U>
7.026

> <W>
-60.672

> <W(PB)>
-62.964

> <W(SA)>
2.292

> <Valence>
7.637

> <Coulomb>
-1.488

> <VdW>
0.877

> <VdW6>
-7.165

> <VdW12>
8.043

> <Bond>
0.134

> <Angle>
2.513

> <Pdih>
4.990

> <Idih>
0.001

> <Tether>
0.000

$$$$
VeraChem MOL file


 22 21  0  0  0  0  0  0  0  0999 V2000     
   20.4241   16.6267   19.4718 C   0  0  0  0  0  0  0  0  0  0  0  0
   21.3544   16.8914   18.7363 O   0  5  0  0  0  0  0  0  0  0  0  0
   19.3536   16.2073   19.0787 O   0  0  0  0  0  0  0  0  0  0  0  0
   20.6031   16.8527   20.9689 C   0  0  0  0  0  0  0  0  0  0  0  0
   21.6544   16.6650   21.2182 H   0  0  0  0  0  0  0  0  0  0  0  0
   20.0048   16.1031   21.5006 H   0  0  0  0  0  0  0  0  0  0  0  0
   20.1931   18.2778   21.4154 C   0  0  0  0  0  0  0  0  0  0  0  0
   20.7945   19.0165   20.8677 H   0  0  0  0  0  0  0  0  0  0  0  0
   19.1448   18.4485   21.1374 H   0  0  0  0  0  0  0  0  0  0  0  0
   20.3804   18.4777   22.9373 C   0  0  0  0  0  0  0  0  0  0  0  0
   21.4161   18.2277   23.2053 H   0  0  0  0  0  0  0  0  0  0  0  0
   19.7390   17.7740   23.4854 H   0  0  0  0  0  0  0  0  0  0  0  0
   20.0872   19.9213   23.4099 C   0  0  0  0  0  0  0  0  0  0  0  0
   20.3647   20.0036   24.4697 H   0  0  0  0  0  0  0  0  0  0  0  0
   20.7312   20.6250   22.8649 H   0  0  0  0  0  0  0  0  0  0  0  0
   18.6073   20.3353   23.2458 C   0  0  0  0  0  0  0  0  0  0  0  0
   17.9597   19.6023   23.7464 H   0  0  0  0  0  0  0  0  0  0  0  0
   18.3299   20.3357   22.1835 H   0  0  0  0  0  0  0  0  0  0  0  0
   18.3438   21.7365   23.8330 C   0  0  0  0  0  0  0  0  0  0  0  0
   18.9595   22.4944   23.3310 H   0  0  0  0  0  0  0  0  0  0  0  0
   18.5744   21.7631   24.9060 H   0  0  0  0  0  0  0  0  0  0  0  0
   17.2902   22.0172   23.7059 H   0  0  0  0  0  0  0  0  0  0  0  0
  1  2  1  0  0  0  0
  1  3  2  0  0  0  0
  1  4  1  0  0  0  0
  4  5  1  0  0  0  0
  4  6  1  0  0  0  0
  4  7  1  0  0  0  0
  7  8  1  0  0  0  0
  7  9  1  0  0  0  0
  7 10  1  0  0  0  0
 10 11  1  0  0  0  0
 10 12  1  0  0  0  0
 10 13  1  0  0  0  0
 13 14  1  0  0  0  0
 13 15  1  0  0  0  0
 13 16  1  0  0  0  0
 16 17  1  0  0  0  0
 16 18  1  0  0  0  0
 16 19  1  0  0  0  0
 19 20  1  0  0  0  0
 19 21  1  0  0  0  0
 19 22  1  0  0  0  0
M  END
> <VConfSearch Rank>
768

> <Conf_Id>
51

> <Delta U+W>
-0.517

> <U+W>
-53.677

> <U>
7.026

> <W>
-60.703

> <W(PB)>
-63.007

> <W(SA)>
2.304

> <Valence>
7.638

> <Coulomb>
-1.488

> <VdW>
0.877

> <VdW6>
-7.165

> <VdW12>
8.042

> <Bond>
0.134

> <Angle>
2.513

> <Pdih>
4.990

> <Idih>
0.001

> <Tether>
0.000

$$$$
VeraChem MOL file


 22 21  0  0  0  0  0  0  0  0999 V2000     
   18.9894   22.0663   21.4375 C   0  0  0  0  0  0  0  0  0  0  0  0
   17.8064   22.2733   21.6235 O   0  5  0  0  0  0  0  0  0  0  0  0
   19.8757   22.6912   21.9860 O   0  0  0  0  0  0  0  0  0  0  0  0
   19.3810   20.9740   20.4462 C   0  0  0  0  0  0  0  0  0  0  0  0
   20.4197   21.1392   20.1354 H   0  0  0  0  0  0  0  0  0  0  0  0
   18.7582   21.1030   19.5532 H   0  0  0  0  0  0  0  0  0  0  0  0
   19.2086   19.5335   20.9942 C   0  0  0  0  0  0  0  0  0  0  0  0
   18.1709   19.3926   21.3273 H   0  0  0  0  0  0  0  0  0  0  0  0
   19.3783   18.8188   20.1775 H   0  0  0  0  0  0  0  0  0  0  0  0
   20.1783   19.2196   22.1556 C   0  0  0  0  0  0  0  0  0  0  0  0
   20.0028   19.9200   22.9839 H   0  0  0  0  0  0  0  0  0  0  0  0
   21.2133   19.3746   21.8215 H   0  0  0  0  0  0  0  0  0  0  0  0
   20.0112   17.7716   22.6643 C   0  0  0  0  0  0  0  0  0  0  0  0
   18.9759   17.6174   22.9983 H   0  0  0  0  0  0  0  0  0  0  0  0
   20.1890   17.0691   21.8385 H   0  0  0  0  0  0  0  0  0  0  0  0
   20.9786   17.4576   23.8247 C   0  0  0  0  0  0  0  0  0  0  0  0
   20.8025   18.1573   24.6535 H   0  0  0  0  0  0  0  0  0  0  0  0
   22.0155   17.6091   23.4939 H   0  0  0  0  0  0  0  0  0  0  0  0
   20.8084   16.0110   24.3305 C   0  0  0  0  0  0  0  0  0  0  0  0
   19.7877   15.8407   24.6972 H   0  0  0  0  0  0  0  0  0  0  0  0
   21.5035   15.8051   25.1549 H   0  0  0  0  0  0  0  0  0  0  0  0
   21.0098   15.2883   23.5289 H   0  0  0  0  0  0  0  0  0  0  0  0
  1  2  1  0  0  0  0
  1  3  2  0  0  0  0
  1  4  1  0  0  0  0
  4  5  1  0  0  0  0
  4  6  1  0  0  0  0
  4  7  1  0  0  0  0
  7  8  1  0  0  0  0
  7  9  1  0  0  0  0
  7 10  1  0  0  0  0
 10 11  1  0  0  0  0
 10 12  1  0  0  0  0
 10 13  1  0  0  0  0
 13 14  1  0  0  0  0
 13 15  1  0  0  0  0
 13 16  1  0  0  0  0
 16 17  1  0  0  0  0
 16 18  1  0  0  0  0
 16 19  1  0  0  0  0
 19 20  1  0  0  0  0
 19 21  1  0  0  0  0
 19 22  1  0  0  0  0
M  END
> <VConfSearch Rank>
769

> <Conf_Id>
43

> <Delta U+W>
-0.129

> <U+W>
-53.289

> <U>
7.937

> <W>
-61.225

> <W(PB)>
-63.523

> <W(SA)>
2.297

> <Valence>
7.358

> <Coulomb>
-0.022

> <VdW>
0.601

> <VdW6>
-7.363

> <VdW12>
7.964

> <Bond>
0.121

> <Angle>
2.425

> <Pdih>
4.811

> <Idih>
0.000

> <Tether>
0.000

$$$$
VeraChem MOL file


 22 21  0  0  0  0  0  0  0  0999 V2000     
   21.8285   19.8524   19.7218 C   0  0  0  0  0  0  0  0  0  0  0  0
   21.5862   19.2265   18.7087 O   0  5  0  0  0  0  0  0  0  0  0  0
   22.8836   19.7802   20.3206 O   0  0  0  0  0  0  0  0  0  0  0  0
   20.7545   20.7940   20.2595 C   0  0  0  0  0  0  0  0  0  0  0  0
   20.3649   21.3664   19.4095 H   0  0  0  0  0  0  0  0  0  0  0  0
   21.2280   21.5147   20.9373 H   0  0  0  0  0  0  0  0  0  0  0  0
   19.5848   20.0721   20.9776 C   0  0  0  0  0  0  0  0  0  0  0  0
   18.8000   20.8058   21.2063 H   0  0  0  0  0  0  0  0  0  0  0  0
   19.1392   19.3343   20.2959 H   0  0  0  0  0  0  0  0  0  0  0  0
   20.0283   19.3766   22.2842 C   0  0  0  0  0  0  0  0  0  0  0  0
   20.4849   20.1158   22.9566 H   0  0  0  0  0  0  0  0  0  0  0  0
   20.8018   18.6286   22.0612 H   0  0  0  0  0  0  0  0  0  0  0  0
   18.8431   18.6917   22.9980 C   0  0  0  0  0  0  0  0  0  0  0  0
   18.0695   19.4382   23.2247 H   0  0  0  0  0  0  0  0  0  0  0  0
   18.3871   17.9526   22.3250 H   0  0  0  0  0  0  0  0  0  0  0  0
   19.2854   17.9962   24.3026 C   0  0  0  0  0  0  0  0  0  0  0  0
   19.7406   18.7328   24.9791 H   0  0  0  0  0  0  0  0  0  0  0  0
   20.0581   17.2474   24.0795 H   0  0  0  0  0  0  0  0  0  0  0  0
   18.0994   17.3129   25.0123 C   0  0  0  0  0  0  0  0  0  0  0  0
   17.3245   18.0448   25.2755 H   0  0  0  0  0  0  0  0  0  0  0  0
   18.4317   16.8238   25.9372 H   0  0  0  0  0  0  0  0  0  0  0  0
   17.6444   16.5482   24.3691 H   0  0  0  0  0  0  0  0  0  0  0  0
  1  2  1  0  0  0  0
  1  3  2  0  0  0  0
  1  4  1  0  0  0  0
  4  5  1  0  0  0  0
  4  6  1  0  0  0  0
  4  7  1  0  0  0  0
  7  8  1  0  0  0  0
  7  9  1  0  0  0  0
  7 10  1  0  0  0  0
 10 11  1  0  0  0  0
 10 12  1  0  0  0  0
 10 13  1  0  0  0  0
 13 14  1  0  0  0  0
 13 15  1  0  0  0  0
 13 16  1  0  0  0  0
 16 17  1  0  0  0  0
 16 18  1  0  0  0  0
 16 19  1  0  0  0  0
 19 20  1  0  0  0  0
 19 21  1  0  0  0  0
 19 22  1  0  0  0  0
M  END
> <VConfSearch Rank>
770

> <Conf_Id>
44

> <Delta U+W>
-0.155

> <U+W>
-53.314

> <U>
7.937

> <W>
-61.252

> <W(PB)>
-63.556

> <W(SA)>
2.304

> <Valence>
7.358

> <Coulomb>
-0.021

> <VdW>
0.600

> <VdW6>
-7.363

> <VdW12>
7.964

> <Bond>
0.121

> <Angle>
2.425

> <Pdih>
4.811

> <Idih>
0.001

> <Tether>
0.000

$$$$
VeraChem MOL file


 22 21  0  0  0  0  0  0  0  0999 V2000     
   22.4176   20.2113   24.2956 C   0  0  0  0  0  0  0  0  0  0  0  0
   23.3112   20.6700   23.6115 O   0  5  0  0  0  0  0  0  0  0  0  0
   22.5986   19.4004   25.1825 O   0  0  0  0  0  0  0  0  0  0  0  0
   20.9935   20.6958   24.0378 C   0  0  0  0  0  0  0  0  0  0  0  0
   21.0309   21.7878   23.9477 H   0  0  0  0  0  0  0  0  0  0  0  0
   20.3815   20.4709   24.9197 H   0  0  0  0  0  0  0  0  0  0  0  0
   20.3410   20.0939   22.7659 C   0  0  0  0  0  0  0  0  0  0  0  0
   19.3924   20.6144   22.5827 H   0  0  0  0  0  0  0  0  0  0  0  0
   20.9850   20.2922   21.8980 H   0  0  0  0  0  0  0  0  0  0  0  0
   20.0851   18.5728   22.8929 C   0  0  0  0  0  0  0  0  0  0  0  0
   19.4071   18.3800   23.7355 H   0  0  0  0  0  0  0  0  0  0  0  0
   21.0301   18.0674   23.1349 H   0  0  0  0  0  0  0  0  0  0  0  0
   19.5084   17.9349   21.6067 C   0  0  0  0  0  0  0  0  0  0  0  0
   20.1866   18.1282   20.7643 H   0  0  0  0  0  0  0  0  0  0  0  0
   19.4831   16.8449   21.7409 H   0  0  0  0  0  0  0  0  0  0  0  0
   18.0868   18.4292   21.2557 C   0  0  0  0  0  0  0  0  0  0  0  0
   18.1028   19.5051   21.0380 H   0  0  0  0  0  0  0  0  0  0  0  0
   17.4211   18.2859   22.1180 H   0  0  0  0  0  0  0  0  0  0  0  0
   17.5131   17.6801   20.0361 C   0  0  0  0  0  0  0  0  0  0  0  0
   18.1457   17.8287   19.1511 H   0  0  0  0  0  0  0  0  0  0  0  0
   16.5054   18.0443   19.7974 H   0  0  0  0  0  0  0  0  0  0  0  0
   17.4459   16.6020   20.2325 H   0  0  0  0  0  0  0  0  0  0  0  0
  1  2  1  0  0  0  0
  1  3  2  0  0  0  0
  1  4  1  0  0  0  0
  4  5  1  0  0  0  0
  4  6  1  0  0  0  0
  4  7  1  0  0  0  0
  7  8  1  0  0  0  0
  7  9  1  0  0  0  0
  7 10  1  0  0  0  0
 10 11  1  0  0  0  0
 10 12  1  0  0  0  0
 10 13  1  0  0  0  0
 13 14  1  0  0  0  0
 13 15  1  0  0  0  0
 13 16  1  0  0  0  0
 16 17  1  0  0  0  0
 16 18  1  0  0  0  0
 16 19  1  0  0  0  0
 19 20  1  0  0  0  0
 19 21  1  0  0  0  0
 19 22  1  0  0  0  0
M  END
> <VConfSearch Rank>
771

> <Conf_Id>
53

> <Delta U+W>
0.723

> <U+W>
-52.436

> <U>
8.587

> <W>
-61.022

> <W(PB)>
-63.285

> <W(SA)>
2.263

> <Valence>
7.933

> <Coulomb>
-0.124

> <VdW>
0.778

> <VdW6>
-7.981

> <VdW12>
8.759

> <Bond>
0.160

> <Angle>
2.698

> <Pdih>
5.074

> <Idih>
0.001

> <Tether>
0.000

$$$$
VeraChem MOL file


 22 21  0  0  0  0  0  0  0  0999 V2000     
   17.9478   19.1595   25.1518 C   0  0  0  0  0  0  0  0  0  0  0  0
   16.7820   19.3388   24.8594 O   0  5  0  0  0  0  0  0  0  0  0  0
   18.3378   18.9946   26.2908 O   0  0  0  0  0  0  0  0  0  0  0  0
   18.9747   19.1168   24.0260 C   0  0  0  0  0  0  0  0  0  0  0  0
   19.9270   19.4927   24.4186 H   0  0  0  0  0  0  0  0  0  0  0  0
   18.6410   19.8113   23.2468 H   0  0  0  0  0  0  0  0  0  0  0  0
   19.1610   17.6958   23.4369 C   0  0  0  0  0  0  0  0  0  0  0  0
   19.3600   16.9966   24.2609 H   0  0  0  0  0  0  0  0  0  0  0  0
   18.2179   17.3687   22.9775 H   0  0  0  0  0  0  0  0  0  0  0  0
   20.3100   17.5778   22.4042 C   0  0  0  0  0  0  0  0  0  0  0  0
   20.3732   16.5244   22.0990 H   0  0  0  0  0  0  0  0  0  0  0  0
   21.2721   17.8080   22.8821 H   0  0  0  0  0  0  0  0  0  0  0  0
   20.1233   18.4390   21.1293 C   0  0  0  0  0  0  0  0  0  0  0  0
   20.5143   17.8775   20.2698 H   0  0  0  0  0  0  0  0  0  0  0  0
   19.0538   18.5941   20.9319 H   0  0  0  0  0  0  0  0  0  0  0  0
   20.8620   19.7959   21.1926 C   0  0  0  0  0  0  0  0  0  0  0  0
   21.9378   19.6224   21.3328 H   0  0  0  0  0  0  0  0  0  0  0  0
   20.5233   20.3803   22.0563 H   0  0  0  0  0  0  0  0  0  0  0  0
   20.6430   20.6191   19.9073 C   0  0  0  0  0  0  0  0  0  0  0  0
   21.0100   20.0771   19.0260 H   0  0  0  0  0  0  0  0  0  0  0  0
   21.1788   21.5755   19.9645 H   0  0  0  0  0  0  0  0  0  0  0  0
   19.5772   20.8360   19.7574 H   0  0  0  0  0  0  0  0  0  0  0  0
  1  2  1  0  0  0  0
  1  3  2  0  0  0  0
  1  4  1  0  0  0  0
  4  5  1  0  0  0  0
  4  6  1  0  0  0  0
  4  7  1  0  0  0  0
  7  8  1  0  0  0  0
  7  9  1  0  0  0  0
  7 10  1  0  0  0  0
 10 11  1  0  0  0  0
 10 12  1  0  0  0  0
 10 13  1  0  0  0  0
 13 14  1  0  0  0  0
 13 15  1  0  0  0  0
 13 16  1  0  0  0  0
 16 17  1  0  0  0  0
 16 18  1  0  0  0  0
 16 19  1  0  0  0  0
 19 20  1  0  0  0  0
 19 21  1  0  0  0  0
 19 22  1  0  0  0  0
M  END
> <VConfSearch Rank>
772

> <Conf_Id>
5

> <Delta U+W>
2.167

> <U+W>
-50.993

> <U>
10.045

> <W>
-61.037

> <W(PB)>
-63.303

> <W(SA)>
2.266

> <Valence>
10.100

> <Coulomb>
-0.883

> <VdW>
0.828

> <VdW6>
-8.177

> <VdW12>
9.005

> <Bond>
0.182

> <Angle>
2.988

> <Pdih>
6.930

> <Idih>
0.001

> <Tether>
0.000

$$$$
VeraChem MOL file


 22 21  0  0  0  0  0  0  0  0999 V2000     
   19.3681   20.2883   25.3518 C   0  0  0  0  0  0  0  0  0  0  0  0
   19.8307   19.5594   26.2069 O   0  5  0  0  0  0  0  0  0  0  0  0
   18.7563   21.3091   25.5971 O   0  0  0  0  0  0  0  0  0  0  0  0
   19.5450   19.8885   23.8913 C   0  0  0  0  0  0  0  0  0  0  0  0
   20.5116   19.3801   23.8020 H   0  0  0  0  0  0  0  0  0  0  0  0
   19.5960   20.8044   23.2908 H   0  0  0  0  0  0  0  0  0  0  0  0
   18.4054   18.9729   23.3774 C   0  0  0  0  0  0  0  0  0  0  0  0
   18.4211   18.0277   23.9375 H   0  0  0  0  0  0  0  0  0  0  0  0
   17.4417   19.4490   23.6052 H   0  0  0  0  0  0  0  0  0  0  0  0
   18.4601   18.6769   21.8575 C   0  0  0  0  0  0  0  0  0  0  0  0
   18.3453   19.6088   21.2871 H   0  0  0  0  0  0  0  0  0  0  0  0
   17.5824   18.0648   21.6083 H   0  0  0  0  0  0  0  0  0  0  0  0
   19.7271   17.9149   21.3932 C   0  0  0  0  0  0  0  0  0  0  0  0
   20.1187   17.2982   22.2137 H   0  0  0  0  0  0  0  0  0  0  0  0
   19.4400   17.2157   20.5958 H   0  0  0  0  0  0  0  0  0  0  0  0
   20.8335   18.8437   20.8420 C   0  0  0  0  0  0  0  0  0  0  0  0
   21.1315   19.5805   21.5975 H   0  0  0  0  0  0  0  0  0  0  0  0
   20.4437   19.4116   19.9859 H   0  0  0  0  0  0  0  0  0  0  0  0
   22.0745   18.0434   20.3986 C   0  0  0  0  0  0  0  0  0  0  0  0
   22.5062   17.4896   21.2426 H   0  0  0  0  0  0  0  0  0  0  0  0
   22.8474   18.7154   20.0035 H   0  0  0  0  0  0  0  0  0  0  0  0
   21.8171   17.3228   19.6113 H   0  0  0  0  0  0  0  0  0  0  0  0
  1  2  1  0  0  0  0
  1  3  2  0  0  0  0
  1  4  1  0  0  0  0
  4  5  1  0  0  0  0
  4  6  1  0  0  0  0
  4  7  1  0  0  0  0
  7  8  1  0  0  0  0
  7  9  1  0  0  0  0
  7 10  1  0  0  0  0
 10 11  1  0  0  0  0
 10 12  1  0  0  0  0
 10 13  1  0  0  0  0
 13 14  1  0  0  0  0
 13 15  1  0  0  0  0
 13 16  1  0  0  0  0
 16 17  1  0  0  0  0
 16 18  1  0  0  0  0
 16 19  1  0  0  0  0
 19 20  1  0  0  0  0
 19 21  1  0  0  0  0
 19 22  1  0  0  0  0
M  END
> <VConfSearch Rank>
773

> <Conf_Id>
6

> <Delta U+W>
2.118

> <U+W>
-51.042

> <U>
10.045

> <W>
-61.086

> <W(PB)>
-63.356

> <W(SA)>
2.270

> <Valence>
10.100

> <Coulomb>
-0.883

> <VdW>
0.828

> <VdW6>
-8.177

> <VdW12>
9.004

> <Bond>
0.182

> <Angle>
2.988

> <Pdih>
6.930

> <Idih>
0.001

> <Tether>
0.000

$$$$
VeraChem MOL file


 22 21  0  0  0  0  0  0  0  0999 V2000     
   21.0881   18.7454   20.3277 C   0  0  0  0  0  0  0  0  0  0  0  0
   21.8598   17.8220   20.4987 O   0  5  0  0  0  0  0  0  0  0  0  0
   21.4365   19.9084   20.2717 O   0  0  0  0  0  0  0  0  0  0  0  0
   19.6121   18.4244   20.1005 C   0  0  0  0  0  0  0  0  0  0  0  0
   19.5630   17.8394   19.1748 H   0  0  0  0  0  0  0  0  0  0  0  0
   19.0691   19.3582   19.9106 H   0  0  0  0  0  0  0  0  0  0  0  0
   18.9236   17.6237   21.2415 C   0  0  0  0  0  0  0  0  0  0  0  0
   18.0255   17.1466   20.8265 H   0  0  0  0  0  0  0  0  0  0  0  0
   19.5766   16.8035   21.5705 H   0  0  0  0  0  0  0  0  0  0  0  0
   18.4853   18.4747   22.4592 C   0  0  0  0  0  0  0  0  0  0  0  0
   17.8801   17.8392   23.1202 H   0  0  0  0  0  0  0  0  0  0  0  0
   17.8263   19.2874   22.1243 H   0  0  0  0  0  0  0  0  0  0  0  0
   19.6603   19.0611   23.2740 C   0  0  0  0  0  0  0  0  0  0  0  0
   20.3729   18.2623   23.5213 H   0  0  0  0  0  0  0  0  0  0  0  0
   20.2020   19.7992   22.6693 H   0  0  0  0  0  0  0  0  0  0  0  0
   19.1724   19.7388   24.5720 C   0  0  0  0  0  0  0  0  0  0  0  0
   18.6350   19.0086   25.1928 H   0  0  0  0  0  0  0  0  0  0  0  0
   18.4581   20.5369   24.3264 H   0  0  0  0  0  0  0  0  0  0  0  0
   20.3453   20.3311   25.3787 C   0  0  0  0  0  0  0  0  0  0  0  0
   21.0600   19.5482   25.6645 H   0  0  0  0  0  0  0  0  0  0  0  0
   19.9809   20.8096   26.2971 H   0  0  0  0  0  0  0  0  0  0  0  0
   20.8825   21.0877   24.7919 H   0  0  0  0  0  0  0  0  0  0  0  0
  1  2  1  0  0  0  0
  1  3  2  0  0  0  0
  1  4  1  0  0  0  0
  4  5  1  0  0  0  0
  4  6  1  0  0  0  0
  4  7  1  0  0  0  0
  7  8  1  0  0  0  0
  7  9  1  0  0  0  0
  7 10  1  0  0  0  0
 10 11  1  0  0  0  0
 10 12  1  0  0  0  0
 10 13  1  0  0  0  0
 13 14  1  0  0  0  0
 13 15  1  0  0  0  0
 13 16  1  0  0  0  0
 16 17  1  0  0  0  0
 16 18  1  0  0  0  0
 16 19  1  0  0  0  0
 19 20  1  0  0  0  0
 19 21  1  0  0  0  0
 19 22  1  0  0  0  0
M  END
> <VConfSearch Rank>
774

> <Conf_Id>
8

> <Delta U+W>
1.886

> <U+W>
-51.274

> <U>
11.237

> <W>
-62.510

> <W(PB)>
-64.777

> <W(SA)>
2.267

> <Valence>
9.029

> <Coulomb>
1.667

> <VdW>
0.540

> <VdW6>
-8.825

> <VdW12>
9.365

> <Bond>
0.186

> <Angle>
3.195

> <Pdih>
5.642

> <Idih>
0.007

> <Tether>
0.000

$$$$
VeraChem MOL file


 22 21  0  0  0  0  0  0  0  0999 V2000     
   21.2027   17.5039   24.7232 C   0  0  0  0  0  0  0  0  0  0  0  0
   20.8026   16.4365   24.3021 O   0  5  0  0  0  0  0  0  0  0  0  0
   21.1743   17.8164   25.8974 O   0  0  0  0  0  0  0  0  0  0  0  0
   21.8013   18.4956   23.7295 C   0  0  0  0  0  0  0  0  0  0  0  0
   22.0097   17.9701   22.7908 H   0  0  0  0  0  0  0  0  0  0  0  0
   22.7723   18.8105   24.1292 H   0  0  0  0  0  0  0  0  0  0  0  0
   20.9209   19.7498   23.4744 C   0  0  0  0  0  0  0  0  0  0  0  0
   20.8006   20.2923   24.4224 H   0  0  0  0  0  0  0  0  0  0  0  0
   21.4519   20.4311   22.7960 H   0  0  0  0  0  0  0  0  0  0  0  0
   19.5172   19.4454   22.8951 C   0  0  0  0  0  0  0  0  0  0  0  0
   18.9588   20.3888   22.8482 H   0  0  0  0  0  0  0  0  0  0  0  0
   18.9648   18.7925   23.5847 H   0  0  0  0  0  0  0  0  0  0  0  0
   19.5577   18.7992   21.4887 C   0  0  0  0  0  0  0  0  0  0  0  0
   20.1261   19.4397   20.8009 H   0  0  0  0  0  0  0  0  0  0  0  0
   20.0951   17.8436   21.5444 H   0  0  0  0  0  0  0  0  0  0  0  0
   18.1549   18.5226   20.8992 C   0  0  0  0  0  0  0  0  0  0  0  0
   17.5786   17.8946   21.5927 H   0  0  0  0  0  0  0  0  0  0  0  0
   18.2710   17.9383   19.9760 H   0  0  0  0  0  0  0  0  0  0  0  0
   17.3601   19.8064   20.5752 C   0  0  0  0  0  0  0  0  0  0  0  0
   17.1120   20.3661   21.4855 H   0  0  0  0  0  0  0  0  0  0  0  0
   16.4168   19.5566   20.0725 H   0  0  0  0  0  0  0  0  0  0  0  0
   17.9329   20.4658   19.9101 H   0  0  0  0  0  0  0  0  0  0  0  0
  1  2  1  0  0  0  0
  1  3  2  0  0  0  0
  1  4  1  0  0  0  0
  4  5  1  0  0  0  0
  4  6  1  0  0  0  0
  4  7  1  0  0  0  0
  7  8  1  0  0  0  0
  7  9  1  0  0  0  0
  7 10  1  0  0  0  0
 10 11  1  0  0  0  0
 10 12  1  0  0  0  0
 10 13  1  0  0  0  0
 13 14  1  0  0  0  0
 13 15  1  0  0  0  0
 13 16  1  0  0  0  0
 16 17  1  0  0  0  0
 16 18  1  0  0  0  0
 16 19  1  0  0  0  0
 19 20  1  0  0  0  0
 19 21  1  0  0  0  0
 19 22  1  0  0  0  0
M  END
> <VConfSearch Rank>
775

> <Conf_Id>
93

> <Delta U+W>
1.836

> <U+W>
-51.323

> <U>
10.427

> <W>
-61.751

> <W(PB)>
-63.980

> <W(SA)>
2.230

> <Valence>
8.446

> <Coulomb>
1.306

> <VdW>
0.676

> <VdW6>
-8.928

> <VdW12>
9.604

> <Bond>
0.209

> <Angle>
3.066

> <Pdih>
5.170

> <Idih>
0.001

> <Tether>
0.000

$$$$
VeraChem MOL file


 22 21  0  0  0  0  0  0  0  0999 V2000     
   18.0311   16.6342   21.7061 C   0  0  0  0  0  0  0  0  0  0  0  0
   18.3632   15.4796   21.8898 O   0  5  0  0  0  0  0  0  0  0  0  0
   17.8318   17.1091   20.6054 O   0  0  0  0  0  0  0  0  0  0  0  0
   17.8246   17.5260   22.9273 C   0  0  0  0  0  0  0  0  0  0  0  0
   17.1739   16.9814   23.6214 H   0  0  0  0  0  0  0  0  0  0  0  0
   17.2694   18.4194   22.6203 H   0  0  0  0  0  0  0  0  0  0  0  0
   19.1384   17.9183   23.6574 C   0  0  0  0  0  0  0  0  0  0  0  0
   18.8921   18.5083   24.5505 H   0  0  0  0  0  0  0  0  0  0  0  0
   19.6254   17.0022   24.0192 H   0  0  0  0  0  0  0  0  0  0  0  0
   20.1485   18.7073   22.7880 C   0  0  0  0  0  0  0  0  0  0  0  0
   20.4282   18.1095   21.9097 H   0  0  0  0  0  0  0  0  0  0  0  0
   21.0658   18.8433   23.3745 H   0  0  0  0  0  0  0  0  0  0  0  0
   19.6198   20.0883   22.3290 C   0  0  0  0  0  0  0  0  0  0  0  0
   18.7166   19.9467   21.7215 H   0  0  0  0  0  0  0  0  0  0  0  0
   19.3205   20.6818   23.2035 H   0  0  0  0  0  0  0  0  0  0  0  0
   20.6405   20.8873   21.4854 C   0  0  0  0  0  0  0  0  0  0  0  0
   20.1413   21.7793   21.0827 H   0  0  0  0  0  0  0  0  0  0  0  0
   20.9534   20.2894   20.6182 H   0  0  0  0  0  0  0  0  0  0  0  0
   21.8830   21.3350   22.2857 C   0  0  0  0  0  0  0  0  0  0  0  0
   22.4849   20.4761   22.6075 H   0  0  0  0  0  0  0  0  0  0  0  0
   21.5916   21.9055   23.1772 H   0  0  0  0  0  0  0  0  0  0  0  0
   22.5252   21.9770   21.6691 H   0  0  0  0  0  0  0  0  0  0  0  0
  1  2  1  0  0  0  0
  1  3  2  0  0  0  0
  1  4  1  0  0  0  0
  4  5  1  0  0  0  0
  4  6  1  0  0  0  0
  4  7  1  0  0  0  0
  7  8  1  0  0  0  0
  7  9  1  0  0  0  0
  7 10  1  0  0  0  0
 10 11  1  0  0  0  0
 10 12  1  0  0  0  0
 10 13  1  0  0  0  0
 13 14  1  0  0  0  0
 13 15  1  0  0  0  0
 13 16  1  0  0  0  0
 16 17  1  0  0  0  0
 16 18  1  0  0  0  0
 16 19  1  0  0  0  0
 19 20  1  0  0  0  0
 19 21  1  0  0  0  0
 19 22  1  0  0  0  0
M  END
> <VConfSearch Rank>
776

> <Conf_Id>
70

> <Delta U+W>
1.803

> <U+W>
-51.356

> <U>
10.428

> <W>
-61.784

> <W(PB)>
-64.014

> <W(SA)>
2.230

> <Valence>
8.445

> <Coulomb>
1.306

> <VdW>
0.676

> <VdW6>
-8.929

> <VdW12>
9.605

> <Bond>
0.209

> <Angle>
3.066

> <Pdih>
5.170

> <Idih>
0.001

> <Tether>
0.000

$$$$
VeraChem MOL file


 22 21  0  0  0  0  0  0  0  0999 V2000     
   20.0323   17.2192   25.1636 C   0  0  0  0  0  0  0  0  0  0  0  0
   20.0669   16.0727   24.7619 O   0  5  0  0  0  0  0  0  0  0  0  0
   19.2286   17.6209   25.9819 O   0  0  0  0  0  0  0  0  0  0  0  0
   21.0690   18.2012   24.6253 C   0  0  0  0  0  0  0  0  0  0  0  0
   22.0412   17.6947   24.6425 H   0  0  0  0  0  0  0  0  0  0  0  0
   21.1408   19.0490   25.3174 H   0  0  0  0  0  0  0  0  0  0  0  0
   20.7728   18.7050   23.1889 C   0  0  0  0  0  0  0  0  0  0  0  0
   21.6276   19.2968   22.8349 H   0  0  0  0  0  0  0  0  0  0  0  0
   20.6864   17.8391   22.5193 H   0  0  0  0  0  0  0  0  0  0  0  0
   19.4898   19.5672   23.1169 C   0  0  0  0  0  0  0  0  0  0  0  0
   19.5615   20.3760   23.8569 H   0  0  0  0  0  0  0  0  0  0  0  0
   18.6176   18.9631   23.4029 H   0  0  0  0  0  0  0  0  0  0  0  0
   19.2471   20.1955   21.7242 C   0  0  0  0  0  0  0  0  0  0  0  0
   18.3934   20.8832   21.7968 H   0  0  0  0  0  0  0  0  0  0  0  0
   20.1146   20.8064   21.4393 H   0  0  0  0  0  0  0  0  0  0  0  0
   18.9587   19.1530   20.6204 C   0  0  0  0  0  0  0  0  0  0  0  0
   18.1246   18.5078   20.9291 H   0  0  0  0  0  0  0  0  0  0  0  0
   19.8313   18.5023   20.4773 H   0  0  0  0  0  0  0  0  0  0  0  0
   18.6131   19.8306   19.2791 C   0  0  0  0  0  0  0  0  0  0  0  0
   17.7196   20.4611   19.3756 H   0  0  0  0  0  0  0  0  0  0  0  0
   18.4142   19.0776   18.5054 H   0  0  0  0  0  0  0  0  0  0  0  0
   19.4424   20.4614   18.9330 H   0  0  0  0  0  0  0  0  0  0  0  0
  1  2  1  0  0  0  0
  1  3  2  0  0  0  0
  1  4  1  0  0  0  0
  4  5  1  0  0  0  0
  4  6  1  0  0  0  0
  4  7  1  0  0  0  0
  7  8  1  0  0  0  0
  7  9  1  0  0  0  0
  7 10  1  0  0  0  0
 10 11  1  0  0  0  0
 10 12  1  0  0  0  0
 10 13  1  0  0  0  0
 13 14  1  0  0  0  0
 13 15  1  0  0  0  0
 13 16  1  0  0  0  0
 16 17  1  0  0  0  0
 16 18  1  0  0  0  0
 16 19  1  0  0  0  0
 19 20  1  0  0  0  0
 19 21  1  0  0  0  0
 19 22  1  0  0  0  0
M  END
> <VConfSearch Rank>
777

> <Conf_Id>
85

> <Delta U+W>
0.707

> <U+W>
-52.452

> <U>
8.925

> <W>
-61.378

> <W(PB)>
-63.661

> <W(SA)>
2.283

> <Valence>
7.881

> <Coulomb>
0.349

> <VdW>
0.695

> <VdW6>
-8.049

> <VdW12>
8.743

> <Bond>
0.156

> <Angle>
2.660

> <Pdih>
5.064

> <Idih>
0.001

> <Tether>
0.000

$$$$
VeraChem MOL file


 22 21  0  0  0  0  0  0  0  0999 V2000     
   21.4388   21.7035   23.1979 C   0  0  0  0  0  0  0  0  0  0  0  0
   21.8018   21.7147   24.3577 O   0  5  0  0  0  0  0  0  0  0  0  0
   22.1516   22.0246   22.2675 O   0  0  0  0  0  0  0  0  0  0  0  0
   20.0027   21.2860   22.8932 C   0  0  0  0  0  0  0  0  0  0  0  0
   19.5919   22.0191   22.1891 H   0  0  0  0  0  0  0  0  0  0  0  0
   19.4117   21.3642   23.8138 H   0  0  0  0  0  0  0  0  0  0  0  0
   19.8715   19.8623   22.2920 C   0  0  0  0  0  0  0  0  0  0  0  0
   18.8338   19.7197   21.9652 H   0  0  0  0  0  0  0  0  0  0  0  0
   20.5050   19.7838   21.3977 H   0  0  0  0  0  0  0  0  0  0  0  0
   20.2465   18.7530   23.3018 C   0  0  0  0  0  0  0  0  0  0  0  0
   19.5531   18.7850   24.1532 H   0  0  0  0  0  0  0  0  0  0  0  0
   21.2445   18.9604   23.7116 H   0  0  0  0  0  0  0  0  0  0  0  0
   20.2602   17.3246   22.7018 C   0  0  0  0  0  0  0  0  0  0  0  0
   21.0183   17.2563   21.9096 H   0  0  0  0  0  0  0  0  0  0  0  0
   20.5929   16.6381   23.4924 H   0  0  0  0  0  0  0  0  0  0  0  0
   18.8898   16.8273   22.1778 C   0  0  0  0  0  0  0  0  0  0  0  0
   18.0721   17.3182   22.7233 H   0  0  0  0  0  0  0  0  0  0  0  0
   18.7997   15.7539   22.3941 H   0  0  0  0  0  0  0  0  0  0  0  0
   18.7124   17.0234   20.6556 C   0  0  0  0  0  0  0  0  0  0  0  0
   18.7762   18.0793   20.3695 H   0  0  0  0  0  0  0  0  0  0  0  0
   17.7336   16.6469   20.3316 H   0  0  0  0  0  0  0  0  0  0  0  0
   19.4837   16.4750   20.0993 H   0  0  0  0  0  0  0  0  0  0  0  0
  1  2  1  0  0  0  0
  1  3  2  0  0  0  0
  1  4  1  0  0  0  0
  4  5  1  0  0  0  0
  4  6  1  0  0  0  0
  4  7  1  0  0  0  0
  7  8  1  0  0  0  0
  7  9  1  0  0  0  0
  7 10  1  0  0  0  0
 10 11  1  0  0  0  0
 10 12  1  0  0  0  0
 10 13  1  0  0  0  0
 13 14  1  0  0  0  0
 13 15  1  0  0  0  0
 13 16  1  0  0  0  0
 16 17  1  0  0  0  0
 16 18  1  0  0  0  0
 16 19  1  0  0  0  0
 19 20  1  0  0  0  0
 19 21  1  0  0  0  0
 19 22  1  0  0  0  0
M  END
> <VConfSearch Rank>
778

> <Conf_Id>
82

> <Delta U+W>
3.438

> <U+W>
-49.721

> <U>
11.773

> <W>
-61.495

> <W(PB)>
-63.749

> <W(SA)>
2.254

> <Valence>
10.419

> <Coulomb>
0.565

> <VdW>
0.789

> <VdW6>
-8.847

> <VdW12>
9.636

> <Bond>
0.200

> <Angle>
3.187

> <Pdih>
7.032

> <Idih>
0.001

> <Tether>
0.000

$$$$
VeraChem MOL file


 22 21  0  0  0  0  0  0  0  0999 V2000     
   19.3187   18.5675   25.6447 C   0  0  0  0  0  0  0  0  0  0  0  0
   18.2914   19.1627   25.9042 O   0  5  0  0  0  0  0  0  0  0  0  0
   19.5690   17.4499   26.0514 O   0  0  0  0  0  0  0  0  0  0  0  0
   20.3600   19.2728   24.7800 C   0  0  0  0  0  0  0  0  0  0  0  0
   21.3280   18.7770   24.9218 H   0  0  0  0  0  0  0  0  0  0  0  0
   20.4670   20.2937   25.1651 H   0  0  0  0  0  0  0  0  0  0  0  0
   20.0006   19.3243   23.2721 C   0  0  0  0  0  0  0  0  0  0  0  0
   19.0086   19.7803   23.1486 H   0  0  0  0  0  0  0  0  0  0  0  0
   20.7215   19.9796   22.7674 H   0  0  0  0  0  0  0  0  0  0  0  0
   20.0251   17.9288   22.6064 C   0  0  0  0  0  0  0  0  0  0  0  0
   19.3870   17.2437   23.1812 H   0  0  0  0  0  0  0  0  0  0  0  0
   21.0422   17.5172   22.6593 H   0  0  0  0  0  0  0  0  0  0  0  0
   19.5403   17.9172   21.1349 C   0  0  0  0  0  0  0  0  0  0  0  0
   19.5489   16.8732   20.7933 H   0  0  0  0  0  0  0  0  0  0  0  0
   18.4914   18.2396   21.0816 H   0  0  0  0  0  0  0  0  0  0  0  0
   20.4082   18.7503   20.1589 C   0  0  0  0  0  0  0  0  0  0  0  0
   20.4546   18.2252   19.1948 H   0  0  0  0  0  0  0  0  0  0  0  0
   21.4428   18.8094   20.5241 H   0  0  0  0  0  0  0  0  0  0  0  0
   19.8479   20.1673   19.9036 C   0  0  0  0  0  0  0  0  0  0  0  0
   18.8410   20.1161   19.4694 H   0  0  0  0  0  0  0  0  0  0  0  0
   20.4895   20.7126   19.1995 H   0  0  0  0  0  0  0  0  0  0  0  0
   19.7882   20.7554   20.8264 H   0  0  0  0  0  0  0  0  0  0  0  0
  1  2  1  0  0  0  0
  1  3  2  0  0  0  0
  1  4  1  0  0  0  0
  4  5  1  0  0  0  0
  4  6  1  0  0  0  0
  4  7  1  0  0  0  0
  7  8  1  0  0  0  0
  7  9  1  0  0  0  0
  7 10  1  0  0  0  0
 10 11  1  0  0  0  0
 10 12  1  0  0  0  0
 10 13  1  0  0  0  0
 13 14  1  0  0  0  0
 13 15  1  0  0  0  0
 13 16  1  0  0  0  0
 16 17  1  0  0  0  0
 16 18  1  0  0  0  0
 16 19  1  0  0  0  0
 19 20  1  0  0  0  0
 19 21  1  0  0  0  0
 19 22  1  0  0  0  0
M  END
> <VConfSearch Rank>
779

> <Conf_Id>
94

> <Delta U+W>
3.471

> <U+W>
-49.688

> <U>
11.773

> <W>
-61.461

> <W(PB)>
-63.710

> <W(SA)>
2.248

> <Valence>
10.419

> <Coulomb>
0.566

> <VdW>
0.789

> <VdW6>
-8.847

> <VdW12>
9.636

> <Bond>
0.200

> <Angle>
3.187

> <Pdih>
7.032

> <Idih>
0.001

> <Tether>
0.000

$$$$
VeraChem MOL file


 22 21  0  0  0  0  0  0  0  0999 V2000     
   21.2497   16.7937   20.4286 C   0  0  0  0  0  0  0  0  0  0  0  0
   21.3342   15.5849   20.5202 O   0  5  0  0  0  0  0  0  0  0  0  0
   22.0793   17.4856   19.8721 O   0  0  0  0  0  0  0  0  0  0  0  0
   20.0464   17.4813   21.0636 C   0  0  0  0  0  0  0  0  0  0  0  0
   19.1897   16.8003   20.9965 H   0  0  0  0  0  0  0  0  0  0  0  0
   19.8091   18.3642   20.4591 H   0  0  0  0  0  0  0  0  0  0  0  0
   20.2953   17.8840   22.5402 C   0  0  0  0  0  0  0  0  0  0  0  0
   20.6105   16.9931   23.1006 H   0  0  0  0  0  0  0  0  0  0  0  0
   21.1360   18.5886   22.5923 H   0  0  0  0  0  0  0  0  0  0  0  0
   19.0494   18.4890   23.2344 C   0  0  0  0  0  0  0  0  0  0  0  0
   19.2937   18.6963   24.2846 H   0  0  0  0  0  0  0  0  0  0  0  0
   18.2543   17.7316   23.2584 H   0  0  0  0  0  0  0  0  0  0  0  0
   18.4866   19.7763   22.5761 C   0  0  0  0  0  0  0  0  0  0  0  0
   18.0909   19.5329   21.5814 H   0  0  0  0  0  0  0  0  0  0  0  0
   17.6235   20.1202   23.1622 H   0  0  0  0  0  0  0  0  0  0  0  0
   19.4954   20.9436   22.4429 C   0  0  0  0  0  0  0  0  0  0  0  0
   18.9948   21.7838   21.9427 H   0  0  0  0  0  0  0  0  0  0  0  0
   20.3270   20.6518   21.7877 H   0  0  0  0  0  0  0  0  0  0  0  0
   20.0471   21.4307   23.8002 C   0  0  0  0  0  0  0  0  0  0  0  0
   19.2307   21.7125   24.4777 H   0  0  0  0  0  0  0  0  0  0  0  0
   20.6902   22.3092   23.6607 H   0  0  0  0  0  0  0  0  0  0  0  0
   20.6474   20.6528   24.2886 H   0  0  0  0  0  0  0  0  0  0  0  0
  1  2  1  0  0  0  0
  1  3  2  0  0  0  0
  1  4  1  0  0  0  0
  4  5  1  0  0  0  0
  4  6  1  0  0  0  0
  4  7  1  0  0  0  0
  7  8  1  0  0  0  0
  7  9  1  0  0  0  0
  7 10  1  0  0  0  0
 10 11  1  0  0  0  0
 10 12  1  0  0  0  0
 10 13  1  0  0  0  0
 13 14  1  0  0  0  0
 13 15  1  0  0  0  0
 13 16  1  0  0  0  0
 16 17  1  0  0  0  0
 16 18  1  0  0  0  0
 16 19  1  0  0  0  0
 19 20  1  0  0  0  0
 19 21  1  0  0  0  0
 19 22  1  0  0  0  0
M  END
> <VConfSearch Rank>
780

> <Conf_Id>
56

> <Delta U+W>
0.853

> <U+W>
-52.307

> <U>
8.874

> <W>
-61.181

> <W(PB)>
-63.413

> <W(SA)>
2.232

> <Valence>
8.479

> <Coulomb>
-0.357

> <VdW>
0.753

> <VdW6>
-9.081

> <VdW12>
9.833

> <Bond>
0.221

> <Angle>
3.208

> <Pdih>
5.050

> <Idih>
0.000

> <Tether>
0.000

$$$$
VeraChem MOL file


 22 21  0  0  0  0  0  0  0  0999 V2000     
   21.9654   15.5157   22.4140 C   0  0  0  0  0  0  0  0  0  0  0  0
   22.2760   15.5452   21.2389 O   0  5  0  0  0  0  0  0  0  0  0  0
   22.3202   14.6353   23.1722 O   0  0  0  0  0  0  0  0  0  0  0  0
   21.0871   16.6251   22.9949 C   0  0  0  0  0  0  0  0  0  0  0  0
   21.6391   17.0772   23.8272 H   0  0  0  0  0  0  0  0  0  0  0  0
   20.1971   16.1479   23.4217 H   0  0  0  0  0  0  0  0  0  0  0  0
   20.6598   17.7270   21.9891 C   0  0  0  0  0  0  0  0  0  0  0  0
   21.5560   18.1968   21.5606 H   0  0  0  0  0  0  0  0  0  0  0  0
   20.1125   17.2666   21.1548 H   0  0  0  0  0  0  0  0  0  0  0  0
   19.7779   18.8040   22.6575 C   0  0  0  0  0  0  0  0  0  0  0  0
   20.3271   19.2628   23.4912 H   0  0  0  0  0  0  0  0  0  0  0  0
   18.8827   18.3320   23.0852 H   0  0  0  0  0  0  0  0  0  0  0  0
   19.3539   19.8990   21.6553 C   0  0  0  0  0  0  0  0  0  0  0  0
   20.2488   20.3713   21.2272 H   0  0  0  0  0  0  0  0  0  0  0  0
   18.8046   19.4407   20.8214 H   0  0  0  0  0  0  0  0  0  0  0  0
   18.4727   20.9756   22.3226 C   0  0  0  0  0  0  0  0  0  0  0  0
   19.0196   21.4379   23.1561 H   0  0  0  0  0  0  0  0  0  0  0  0
   17.5754   20.5072   22.7503 H   0  0  0  0  0  0  0  0  0  0  0  0
   18.0514   22.0672   21.3184 C   0  0  0  0  0  0  0  0  0  0  0  0
   18.9298   22.5743   20.8981 H   0  0  0  0  0  0  0  0  0  0  0  0
   17.4258   22.8239   21.8094 H   0  0  0  0  0  0  0  0  0  0  0  0
   17.4746   21.6367   20.4893 H   0  0  0  0  0  0  0  0  0  0  0  0
  1  2  1  0  0  0  0
  1  3  2  0  0  0  0
  1  4  1  0  0  0  0
  4  5  1  0  0  0  0
  4  6  1  0  0  0  0
  4  7  1  0  0  0  0
  7  8  1  0  0  0  0
  7  9  1  0  0  0  0
  7 10  1  0  0  0  0
 10 11  1  0  0  0  0
 10 12  1  0  0  0  0
 10 13  1  0  0  0  0
 13 14  1  0  0  0  0
 13 15  1  0  0  0  0
 13 16  1  0  0  0  0
 16 17  1  0  0  0  0
 16 18  1  0  0  0  0
 16 19  1  0  0  0  0
 19 20  1  0  0  0  0
 19 21  1  0  0  0  0
 19 22  1  0  0  0  0
M  END
> <VConfSearch Rank>
781

> <Conf_Id>
0

> <Delta U+W>
0.000

> <U+W>
-53.159

> <U>
6.763

> <W>
-59.922

> <W(PB)>
-62.256

> <W(SA)>
2.334

> <Valence>
7.600

> <Coulomb>
-2.139

> <VdW>
1.302

> <VdW6>
-6.786

> <VdW12>
8.088

> <Bond>
0.134

> <Angle>
2.720

> <Pdih>
4.746

> <Idih>
0.000

> <Tether>
0.000

$$$$
VeraChem MOL file


 22 21  0  0  0  0  0  0  0  0999 V2000     
   23.7178   18.5054   22.9414 C   0  0  0  0  0  0  0  0  0  0  0  0
   24.3381   17.9475   22.0580 O   0  5  0  0  0  0  0  0  0  0  0  0
   23.9850   18.3990   24.1219 O   0  0  0  0  0  0  0  0  0  0  0  0
   22.5245   19.3689   22.5483 C   0  0  0  0  0  0  0  0  0  0  0  0
   22.7359   19.8174   21.5702 H   0  0  0  0  0  0  0  0  0  0  0  0
   22.4451   20.1898   23.2711 H   0  0  0  0  0  0  0  0  0  0  0  0
   21.1972   18.5729   22.4956 C   0  0  0  0  0  0  0  0  0  0  0  0
   21.2975   17.7472   21.7775 H   0  0  0  0  0  0  0  0  0  0  0  0
   21.0067   18.1196   23.4784 H   0  0  0  0  0  0  0  0  0  0  0  0
   20.0051   19.4689   22.0956 C   0  0  0  0  0  0  0  0  0  0  0  0
   20.1993   19.9214   21.1135 H   0  0  0  0  0  0  0  0  0  0  0  0
   19.9084   20.2939   22.8148 H   0  0  0  0  0  0  0  0  0  0  0  0
   18.6834   18.6727   22.0440 C   0  0  0  0  0  0  0  0  0  0  0  0
   18.7797   17.8476   21.3250 H   0  0  0  0  0  0  0  0  0  0  0  0
   18.4889   18.2200   23.0260 H   0  0  0  0  0  0  0  0  0  0  0  0
   17.4915   19.5675   21.6443 C   0  0  0  0  0  0  0  0  0  0  0  0
   17.6815   20.0206   20.6614 H   0  0  0  0  0  0  0  0  0  0  0  0
   17.3907   20.3931   22.3625 H   0  0  0  0  0  0  0  0  0  0  0  0
   16.1736   18.7687   21.5939 C   0  0  0  0  0  0  0  0  0  0  0  0
   15.9424   18.3301   22.5735 H   0  0  0  0  0  0  0  0  0  0  0  0
   16.2355   17.9548   20.8597 H   0  0  0  0  0  0  0  0  0  0  0  0
   15.3373   19.4199   21.3082 H   0  0  0  0  0  0  0  0  0  0  0  0
  1  2  1  0  0  0  0
  1  3  2  0  0  0  0
  1  4  1  0  0  0  0
  4  5  1  0  0  0  0
  4  6  1  0  0  0  0
  4  7  1  0  0  0  0
  7  8  1  0  0  0  0
  7  9  1  0  0  0  0
  7 10  1  0  0  0  0
 10 11  1  0  0  0  0
 10 12  1  0  0  0  0
 10 13  1  0  0  0  0
 13 14  1  0  0  0  0
 13 15  1  0  0  0  0
 13 16  1  0  0  0  0
 16 17  1  0  0  0  0
 16 18  1  0  0  0  0
 16 19  1  0  0  0  0
 19 20  1  0  0  0  0
 19 21  1  0  0  0  0
 19 22  1  0  0  0  0
M  END
> <VConfSearch Rank>
782

> <Conf_Id>
10

> <Delta U+W>
-1.291

> <U+W>
-54.451

> <U>
5.779

> <W>
-60.230

> <W(PB)>
-62.557

> <W(SA)>
2.328

> <Valence>
7.101

> <Coulomb>
-2.079

> <VdW>
0.757

> <VdW6>
-6.496

> <VdW12>
7.253

> <Bond>
0.100

> <Angle>
2.262

> <Pdih>
4.738

> <Idih>
0.001

> <Tether>
0.000

$$$$
VeraChem MOL file


 22 21  0  0  0  0  0  0  0  0999 V2000     
   17.7513   21.5112   24.2083 C   0  0  0  0  0  0  0  0  0  0  0  0
   17.0980   20.9939   25.0927 O   0  5  0  0  0  0  0  0  0  0  0  0
   18.1265   22.6665   24.2366 O   0  0  0  0  0  0  0  0  0  0  0  0
   18.1396   20.6573   23.0065 C   0  0  0  0  0  0  0  0  0  0  0  0
   18.1840   21.3089   22.1256 H   0  0  0  0  0  0  0  0  0  0  0  0
   17.3376   19.9301   22.8317 H   0  0  0  0  0  0  0  0  0  0  0  0
   19.4912   19.9263   23.1991 C   0  0  0  0  0  0  0  0  0  0  0  0
   20.2807   20.6674   23.3862 H   0  0  0  0  0  0  0  0  0  0  0  0
   19.4346   19.2879   24.0917 H   0  0  0  0  0  0  0  0  0  0  0  0
   19.8615   19.0691   21.9693 C   0  0  0  0  0  0  0  0  0  0  0  0
   19.9194   19.7101   21.0791 H   0  0  0  0  0  0  0  0  0  0  0  0
   19.0635   18.3376   21.7872 H   0  0  0  0  0  0  0  0  0  0  0  0
   21.2095   18.3386   22.1681 C   0  0  0  0  0  0  0  0  0  0  0  0
   21.9829   19.0775   22.4190 H   0  0  0  0  0  0  0  0  0  0  0  0
   21.1388   17.6582   23.0277 H   0  0  0  0  0  0  0  0  0  0  0  0
   21.6709   17.5495   20.9208 C   0  0  0  0  0  0  0  0  0  0  0  0
   22.6829   17.1623   21.1032 H   0  0  0  0  0  0  0  0  0  0  0  0
   21.7490   18.2282   20.0602 H   0  0  0  0  0  0  0  0  0  0  0  0
   20.7428   16.3672   20.5675 C   0  0  0  0  0  0  0  0  0  0  0  0
   21.1597   15.7881   19.7333 H   0  0  0  0  0  0  0  0  0  0  0  0
   19.7475   16.7156   20.2647 H   0  0  0  0  0  0  0  0  0  0  0  0
   20.6256   15.6902   21.4236 H   0  0  0  0  0  0  0  0  0  0  0  0
  1  2  1  0  0  0  0
  1  3  2  0  0  0  0
  1  4  1  0  0  0  0
  4  5  1  0  0  0  0
  4  6  1  0  0  0  0
  4  7  1  0  0  0  0
  7  8  1  0  0  0  0
  7  9  1  0  0  0  0
  7 10  1  0  0  0  0
 10 11  1  0  0  0  0
 10 12  1  0  0  0  0
 10 13  1  0  0  0  0
 13 14  1  0  0  0  0
 13 15  1  0  0  0  0
 13 16  1  0  0  0  0
 16 17  1  0  0  0  0
 16 18  1  0  0  0  0
 16 19  1  0  0  0  0
 19 20  1  0  0  0  0
 19 21  1  0  0  0  0
 19 22  1  0  0  0  0
M  END
> <VConfSearch Rank>
783

> <Conf_Id>
37

> <Delta U+W>
-0.345

> <U+W>
-53.504

> <U>
6.751

> <W>
-60.255

> <W(PB)>
-62.592

> <W(SA)>
2.336

> <Valence>
7.602

> <Coulomb>
-1.744

> <VdW>
0.894

> <VdW6>
-7.110

> <VdW12>
8.004

> <Bond>
0.131

> <Angle>
2.489

> <Pdih>
4.982

> <Idih>
0.001

> <Tether>
0.000

$$$$
VeraChem MOL file


 22 21  0  0  0  0  0  0  0  0999 V2000     
   17.7866   16.7774   19.7312 C   0  0  0  0  0  0  0  0  0  0  0  0
   17.4510   17.3776   18.7294 O   0  5  0  0  0  0  0  0  0  0  0  0
   17.1818   15.8229   20.1782 O   0  0  0  0  0  0  0  0  0  0  0  0
   19.0224   17.2620   20.4809 C   0  0  0  0  0  0  0  0  0  0  0  0
   19.7265   17.6731   19.7474 H   0  0  0  0  0  0  0  0  0  0  0  0
   19.5051   16.3914   20.9410 H   0  0  0  0  0  0  0  0  0  0  0  0
   18.6942   18.3233   21.5598 C   0  0  0  0  0  0  0  0  0  0  0  0
   18.2005   19.1827   21.0852 H   0  0  0  0  0  0  0  0  0  0  0  0
   17.9781   17.9006   22.2782 H   0  0  0  0  0  0  0  0  0  0  0  0
   19.9613   18.7973   22.3042 C   0  0  0  0  0  0  0  0  0  0  0  0
   20.6722   19.2108   21.5770 H   0  0  0  0  0  0  0  0  0  0  0  0
   20.4514   17.9366   22.7794 H   0  0  0  0  0  0  0  0  0  0  0  0
   19.6288   19.8594   23.3773 C   0  0  0  0  0  0  0  0  0  0  0  0
   19.1848   20.7430   22.8987 H   0  0  0  0  0  0  0  0  0  0  0  0
   18.8643   19.4556   24.0551 H   0  0  0  0  0  0  0  0  0  0  0  0
   20.8536   20.2878   24.2186 C   0  0  0  0  0  0  0  0  0  0  0  0
   21.2966   19.4073   24.7042 H   0  0  0  0  0  0  0  0  0  0  0  0
   20.5120   20.9488   25.0271 H   0  0  0  0  0  0  0  0  0  0  0  0
   21.9324   21.0253   23.3962 C   0  0  0  0  0  0  0  0  0  0  0  0
   21.5056   21.8932   22.8769 H   0  0  0  0  0  0  0  0  0  0  0  0
   22.3868   20.3647   22.6474 H   0  0  0  0  0  0  0  0  0  0  0  0
   22.7355   21.3854   24.0522 H   0  0  0  0  0  0  0  0  0  0  0  0
  1  2  1  0  0  0  0
  1  3  2  0  0  0  0
  1  4  1  0  0  0  0
  4  5  1  0  0  0  0
  4  6  1  0  0  0  0
  4  7  1  0  0  0  0
  7  8  1  0  0  0  0
  7  9  1  0  0  0  0
  7 10  1  0  0  0  0
 10 11  1  0  0  0  0
 10 12  1  0  0  0  0
 10 13  1  0  0  0  0
 13 14  1  0  0  0  0
 13 15  1  0  0  0  0
 13 16  1  0  0  0  0
 16 17  1  0  0  0  0
 16 18  1  0  0  0  0
 16 19  1  0  0  0  0
 19 20  1  0  0  0  0
 19 21  1  0  0  0  0
 19 22  1  0  0  0  0
M  END
> <VConfSearch Rank>
784

> <Conf_Id>
38

> <Delta U+W>
-0.439

> <U+W>
-53.598

> <U>
6.751

> <W>
-60.350

> <W(PB)>
-62.659

> <W(SA)>
2.309

> <Valence>
7.602

> <Coulomb>
-1.744

> <VdW>
0.893

> <VdW6>
-7.110

> <VdW12>
8.004

> <Bond>
0.131

> <Angle>
2.489

> <Pdih>
4.981

> <Idih>
0.001

> <Tether>
0.000

$$$$
VeraChem MOL file


 22 21  0  0  0  0  0  0  0  0999 V2000     
   19.8578   16.4883   19.4298 C   0  0  0  0  0  0  0  0  0  0  0  0
   19.8136   15.2871   19.6079 O   0  5  0  0  0  0  0  0  0  0  0  0
   20.2580   17.0018   18.4038 O   0  0  0  0  0  0  0  0  0  0  0  0
   19.4077   17.4015   20.5645 C   0  0  0  0  0  0  0  0  0  0  0  0
   18.6137   16.8878   21.1197 H   0  0  0  0  0  0  0  0  0  0  0  0
   18.9639   18.2966   20.1147 H   0  0  0  0  0  0  0  0  0  0  0  0
   20.5669   17.7854   21.5208 C   0  0  0  0  0  0  0  0  0  0  0  0
   21.0493   16.8639   21.8751 H   0  0  0  0  0  0  0  0  0  0  0  0
   21.3336   18.3420   20.9643 H   0  0  0  0  0  0  0  0  0  0  0  0
   20.1116   18.6085   22.7496 C   0  0  0  0  0  0  0  0  0  0  0  0
   20.9678   18.7057   23.4291 H   0  0  0  0  0  0  0  0  0  0  0  0
   19.3392   18.0530   23.2989 H   0  0  0  0  0  0  0  0  0  0  0  0
   19.5823   20.0173   22.3847 C   0  0  0  0  0  0  0  0  0  0  0  0
   20.3541   20.5720   21.8339 H   0  0  0  0  0  0  0  0  0  0  0  0
   18.7242   19.9215   21.7076 H   0  0  0  0  0  0  0  0  0  0  0  0
   19.1315   20.8412   23.6136 C   0  0  0  0  0  0  0  0  0  0  0  0
   18.3675   20.2845   24.1738 H   0  0  0  0  0  0  0  0  0  0  0  0
   18.6472   21.7621   23.2605 H   0  0  0  0  0  0  0  0  0  0  0  0
   20.2930   21.2236   24.5565 C   0  0  0  0  0  0  0  0  0  0  0  0
   20.7329   20.3382   25.0319 H   0  0  0  0  0  0  0  0  0  0  0  0
   19.9356   21.8856   25.3559 H   0  0  0  0  0  0  0  0  0  0  0  0
   21.0854   21.7515   24.0100 H   0  0  0  0  0  0  0  0  0  0  0  0
  1  2  1  0  0  0  0
  1  3  2  0  0  0  0
  1  4  1  0  0  0  0
  4  5  1  0  0  0  0
  4  6  1  0  0  0  0
  4  7  1  0  0  0  0
  7  8  1  0  0  0  0
  7  9  1  0  0  0  0
  7 10  1  0  0  0  0
 10 11  1  0  0  0  0
 10 12  1  0  0  0  0
 10 13  1  0  0  0  0
 13 14  1  0  0  0  0
 13 15  1  0  0  0  0
 13 16  1  0  0  0  0
 16 17  1  0  0  0  0
 16 18  1  0  0  0  0
 16 19  1  0  0  0  0
 19 20  1  0  0  0  0
 19 21  1  0  0  0  0
 19 22  1  0  0  0  0
M  END
> <VConfSearch Rank>
785

> <Conf_Id>
60

> <Delta U+W>
0.386

> <U+W>
-52.773

> <U>
7.689

> <W>
-60.463

> <W(PB)>
-62.772

> <W(SA)>
2.309

> <Valence>
8.197

> <Coulomb>
-1.561

> <VdW>
1.053

> <VdW6>
-7.737

> <VdW12>
8.790

> <Bond>
0.181

> <Angle>
2.780

> <Pdih>
5.235

> <Idih>
0.001

> <Tether>
0.000

$$$$
VeraChem MOL file


 22 21  0  0  0  0  0  0  0  0999 V2000     
   18.8536   19.5016   25.8223 C   0  0  0  0  0  0  0  0  0  0  0  0
   19.4760   18.7529   26.5495 O   0  5  0  0  0  0  0  0  0  0  0  0
   17.8317   20.0679   26.1560 O   0  0  0  0  0  0  0  0  0  0  0  0
   19.3710   19.7250   24.4057 C   0  0  0  0  0  0  0  0  0  0  0  0
   20.4649   19.6738   24.4394 H   0  0  0  0  0  0  0  0  0  0  0  0
   19.1015   20.7436   24.1021 H   0  0  0  0  0  0  0  0  0  0  0  0
   18.8048   18.6970   23.3917 C   0  0  0  0  0  0  0  0  0  0  0  0
   19.1219   17.6848   23.6784 H   0  0  0  0  0  0  0  0  0  0  0  0
   17.7079   18.7078   23.4564 H   0  0  0  0  0  0  0  0  0  0  0  0
   19.2159   18.9787   21.9266 C   0  0  0  0  0  0  0  0  0  0  0  0
   18.9047   19.9942   21.6459 H   0  0  0  0  0  0  0  0  0  0  0  0
   18.6566   18.2915   21.2791 H   0  0  0  0  0  0  0  0  0  0  0  0
   20.7333   18.8071   21.6695 C   0  0  0  0  0  0  0  0  0  0  0  0
   21.2936   19.4960   22.3141 H   0  0  0  0  0  0  0  0  0  0  0  0
   21.0447   17.7923   21.9520 H   0  0  0  0  0  0  0  0  0  0  0  0
   21.1430   19.0844   20.2041 C   0  0  0  0  0  0  0  0  0  0  0  0
   22.2397   19.0760   20.1384 H   0  0  0  0  0  0  0  0  0  0  0  0
   20.8229   20.0947   19.9139 H   0  0  0  0  0  0  0  0  0  0  0  0
   20.5798   18.0524   19.2029 C   0  0  0  0  0  0  0  0  0  0  0  0
   20.8586   17.0309   19.4929 H   0  0  0  0  0  0  0  0  0  0  0  0
   20.9773   18.2381   18.1967 H   0  0  0  0  0  0  0  0  0  0  0  0
   19.4859   18.1071   19.1420 H   0  0  0  0  0  0  0  0  0  0  0  0
  1  2  1  0  0  0  0
  1  3  2  0  0  0  0
  1  4  1  0  0  0  0
  4  5  1  0  0  0  0
  4  6  1  0  0  0  0
  4  7  1  0  0  0  0
  7  8  1  0  0  0  0
  7  9  1  0  0  0  0
  7 10  1  0  0  0  0
 10 11  1  0  0  0  0
 10 12  1  0  0  0  0
 10 13  1  0  0  0  0
 13 14  1  0  0  0  0
 13 15  1  0  0  0  0
 13 16  1  0  0  0  0
 16 17  1  0  0  0  0
 16 18  1  0  0  0  0
 16 19  1  0  0  0  0
 19 20  1  0  0  0  0
 19 21  1  0  0  0  0
 19 22  1  0  0  0  0
M  END
> <VConfSearch Rank>
786

> <Conf_Id>
28

> <Delta U+W>
0.351

> <U+W>
-52.808

> <U>
7.689

> <W>
-60.498

> <W(PB)>
-62.768

> <W(SA)>
2.270

> <Valence>
8.197

> <Coulomb>
-1.561

> <VdW>
1.053

> <VdW6>
-7.737

> <VdW12>
8.791

> <Bond>
0.181

> <Angle>
2.780

> <Pdih>
5.235

> <Idih>
0.001

> <Tether>
0.000

$$$$
VeraChem MOL file


 22 21  0  0  0  0  0  0  0  0999 V2000     
   18.3103   18.7813   25.6387 C   0  0  0  0  0  0  0  0  0  0  0  0
   17.1259   18.5124   25.6761 O   0  5  0  0  0  0  0  0  0  0  0  0
   19.1274   18.3318   26.4177 O   0  0  0  0  0  0  0  0  0  0  0  0
   18.8014   19.7188   24.5414 C   0  0  0  0  0  0  0  0  0  0  0  0
   19.6523   20.2879   24.9349 H   0  0  0  0  0  0  0  0  0  0  0  0
   18.0023   20.4380   24.3252 H   0  0  0  0  0  0  0  0  0  0  0  0
   19.2117   18.9699   23.2494 C   0  0  0  0  0  0  0  0  0  0  0  0
   19.9970   18.2431   23.4951 H   0  0  0  0  0  0  0  0  0  0  0  0
   18.3520   18.3983   22.8731 H   0  0  0  0  0  0  0  0  0  0  0  0
   19.7097   19.9435   22.1561 C   0  0  0  0  0  0  0  0  0  0  0  0
   20.6013   20.4771   22.5130 H   0  0  0  0  0  0  0  0  0  0  0  0
   18.9397   20.7073   21.9807 H   0  0  0  0  0  0  0  0  0  0  0  0
   20.0261   19.2491   20.8102 C   0  0  0  0  0  0  0  0  0  0  0  0
   19.1336   18.7188   20.4510 H   0  0  0  0  0  0  0  0  0  0  0  0
   20.2488   20.0233   20.0632 H   0  0  0  0  0  0  0  0  0  0  0  0
   21.2186   18.2693   20.8873 C   0  0  0  0  0  0  0  0  0  0  0  0
   20.9857   17.4426   21.5713 H   0  0  0  0  0  0  0  0  0  0  0  0
   22.0975   18.7864   21.2964 H   0  0  0  0  0  0  0  0  0  0  0  0
   21.5648   17.6900   19.5009 C   0  0  0  0  0  0  0  0  0  0  0  0
   21.8412   18.4878   18.7991 H   0  0  0  0  0  0  0  0  0  0  0  0
   20.7109   17.1432   19.0797 H   0  0  0  0  0  0  0  0  0  0  0  0
   22.4108   16.9941   19.5727 H   0  0  0  0  0  0  0  0  0  0  0  0
  1  2  1  0  0  0  0
  1  3  2  0  0  0  0
  1  4  1  0  0  0  0
  4  5  1  0  0  0  0
  4  6  1  0  0  0  0
  4  7  1  0  0  0  0
  7  8  1  0  0  0  0
  7  9  1  0  0  0  0
  7 10  1  0  0  0  0
 10 11  1  0  0  0  0
 10 12  1  0  0  0  0
 10 13  1  0  0  0  0
 13 14  1  0  0  0  0
 13 15  1  0  0  0  0
 13 16  1  0  0  0  0
 16 17  1  0  0  0  0
 16 18  1  0  0  0  0
 16 19  1  0  0  0  0
 19 20  1  0  0  0  0
 19 21  1  0  0  0  0
 19 22  1  0  0  0  0
M  END
> <VConfSearch Rank>
787

> <Conf_Id>
50

> <Delta U+W>
-0.486

> <U+W>
-53.646

> <U>
7.026

> <W>
-60.672

> <W(PB)>
-62.964

> <W(SA)>
2.292

> <Valence>
7.637

> <Coulomb>
-1.488

> <VdW>
0.877

> <VdW6>
-7.165

> <VdW12>
8.043

> <Bond>
0.134

> <Angle>
2.513

> <Pdih>
4.990

> <Idih>
0.001

> <Tether>
0.000

$$$$
VeraChem MOL file


 22 21  0  0  0  0  0  0  0  0999 V2000     
   22.0036   16.1899   23.1777 C   0  0  0  0  0  0  0  0  0  0  0  0
   22.6974   16.3391   24.1641 O   0  5  0  0  0  0  0  0  0  0  0  0
   22.4014   15.6891   22.1445 O   0  0  0  0  0  0  0  0  0  0  0  0
   20.5599   16.6767   23.2327 C   0  0  0  0  0  0  0  0  0  0  0  0
   20.1982   16.5544   24.2607 H   0  0  0  0  0  0  0  0  0  0  0  0
   19.9545   16.0206   22.5957 H   0  0  0  0  0  0  0  0  0  0  0  0
   20.4042   18.1501   22.7822 C   0  0  0  0  0  0  0  0  0  0  0  0
   21.0230   18.7928   23.4236 H   0  0  0  0  0  0  0  0  0  0  0  0
   20.7907   18.2509   21.7595 H   0  0  0  0  0  0  0  0  0  0  0  0
   18.9309   18.6157   22.8434 C   0  0  0  0  0  0  0  0  0  0  0  0
   18.5413   18.4350   23.8546 H   0  0  0  0  0  0  0  0  0  0  0  0
   18.3210   18.0069   22.1619 H   0  0  0  0  0  0  0  0  0  0  0  0
   18.7435   20.1141   22.5070 C   0  0  0  0  0  0  0  0  0  0  0  0
   17.6958   20.3849   22.6965 H   0  0  0  0  0  0  0  0  0  0  0  0
   19.3502   20.7235   23.1908 H   0  0  0  0  0  0  0  0  0  0  0  0
   19.0954   20.4663   21.0440 C   0  0  0  0  0  0  0  0  0  0  0  0
   18.5275   19.8203   20.3604 H   0  0  0  0  0  0  0  0  0  0  0  0
   20.1601   20.2765   20.8545 H   0  0  0  0  0  0  0  0  0  0  0  0
   18.7859   21.9435   20.7281 C   0  0  0  0  0  0  0  0  0  0  0  0
   19.3621   22.6132   21.3799 H   0  0  0  0  0  0  0  0  0  0  0  0
   17.7192   22.1609   20.8699 H   0  0  0  0  0  0  0  0  0  0  0  0
   19.0440   22.1787   19.6873 H   0  0  0  0  0  0  0  0  0  0  0  0
  1  2  1  0  0  0  0
  1  3  2  0  0  0  0
  1  4  1  0  0  0  0
  4  5  1  0  0  0  0
  4  6  1  0  0  0  0
  4  7  1  0  0  0  0
  7  8  1  0  0  0  0
  7  9  1  0  0  0  0
  7 10  1  0  0  0  0
 10 11  1  0  0  0  0
 10 12  1  0  0  0  0
 10 13  1  0  0  0  0
 13 14  1  0  0  0  0
 13 15  1  0  0  0  0
 13 16  1  0  0  0  0
 16 17  1  0  0  0  0
 16 18  1  0  0  0  0
 16 19  1  0  0  0  0
 19 20  1  0  0  0  0
 19 21  1  0  0  0  0
 19 22  1  0  0  0  0
M  END
> <VConfSearch Rank>
788

> <Conf_Id>
51

> <Delta U+W>
-0.517

> <U+W>
-53.677

> <U>
7.026

> <W>
-60.703

> <W(PB)>
-63.007

> <W(SA)>
2.304

> <Valence>
7.638

> <Coulomb>
-1.488

> <VdW>
0.877

> <VdW6>
-7.165

> <VdW12>
8.042

> <Bond>
0.134

> <Angle>
2.513

> <Pdih>
4.990

> <Idih>
0.001

> <Tether>
0.000

$$$$
VeraChem MOL file


 22 21  0  0  0  0  0  0  0  0999 V2000     
   21.2313   17.0974   25.0606 C   0  0  0  0  0  0  0  0  0  0  0  0
   20.9350   15.9190   25.0388 O   0  5  0  0  0  0  0  0  0  0  0  0
   22.3761   17.5035   25.0244 O   0  0  0  0  0  0  0  0  0  0  0  0
   20.1033   18.1207   25.1577 C   0  0  0  0  0  0  0  0  0  0  0  0
   20.5223   19.0717   25.5083 H   0  0  0  0  0  0  0  0  0  0  0  0
   19.4114   17.7733   25.9340 H   0  0  0  0  0  0  0  0  0  0  0  0
   19.3287   18.3334   23.8311 C   0  0  0  0  0  0  0  0  0  0  0  0
   18.9393   17.3683   23.4783 H   0  0  0  0  0  0  0  0  0  0  0  0
   18.4577   18.9737   24.0257 H   0  0  0  0  0  0  0  0  0  0  0  0
   20.2004   18.9798   22.7311 C   0  0  0  0  0  0  0  0  0  0  0  0
   21.0654   18.3363   22.5185 H   0  0  0  0  0  0  0  0  0  0  0  0
   20.5978   19.9377   23.0935 H   0  0  0  0  0  0  0  0  0  0  0  0
   19.4013   19.2110   21.4306 C   0  0  0  0  0  0  0  0  0  0  0  0
   19.0042   18.2526   21.0688 H   0  0  0  0  0  0  0  0  0  0  0  0
   18.5373   19.8566   21.6400 H   0  0  0  0  0  0  0  0  0  0  0  0
   20.2713   19.8558   20.3314 C   0  0  0  0  0  0  0  0  0  0  0  0
   21.1357   19.2118   20.1179 H   0  0  0  0  0  0  0  0  0  0  0  0
   20.6690   20.8157   20.6891 H   0  0  0  0  0  0  0  0  0  0  0  0
   19.4701   20.0846   19.0340 C   0  0  0  0  0  0  0  0  0  0  0  0
   19.0868   19.1357   18.6366 H   0  0  0  0  0  0  0  0  0  0  0  0
   20.1038   20.5433   18.2639 H   0  0  0  0  0  0  0  0  0  0  0  0
   18.6164   20.7516   19.2121 H   0  0  0  0  0  0  0  0  0  0  0  0
  1  2  1  0  0  0  0
  1  3  2  0  0  0  0
  1  4  1  0  0  0  0
  4  5  1  0  0  0  0
  4  6  1  0  0  0  0
  4  7  1  0  0  0  0
  7  8  1  0  0  0  0
  7  9  1  0  0  0  0
  7 10  1  0  0  0  0
 10 11  1  0  0  0  0
 10 12  1  0  0  0  0
 10 13  1  0  0  0  0
 13 14  1  0  0  0  0
 13 15  1  0  0  0  0
 13 16  1  0  0  0  0
 16 17  1  0  0  0  0
 16 18  1  0  0  0  0
 16 19  1  0  0  0  0
 19 20  1  0  0  0  0
 19 21  1  0  0  0  0
 19 22  1  0  0  0  0
M  END
> <VConfSearch Rank>
789

> <Conf_Id>
43

> <Delta U+W>
-0.129

> <U+W>
-53.289

> <U>
7.937

> <W>
-61.225

> <W(PB)>
-63.523

> <W(SA)>
2.297

> <Valence>
7.358

> <Coulomb>
-0.022

> <VdW>
0.601

> <VdW6>
-7.363

> <VdW12>
7.964

> <Bond>
0.121

> <Angle>
2.425

> <Pdih>
4.811

> <Idih>
0.000

> <Tether>
0.000

$$$$
VeraChem MOL file


 22 21  0  0  0  0  0  0  0  0999 V2000     
   18.9511   22.3961   21.6782 C   0  0  0  0  0  0  0  0  0  0  0  0
   18.5286   22.9954   22.6474 O   0  5  0  0  0  0  0  0  0  0  0  0
   18.3120   22.2329   20.6575 O   0  0  0  0  0  0  0  0  0  0  0  0
   20.3687   21.8344   21.7419 C   0  0  0  0  0  0  0  0  0  0  0  0
   21.0140   22.6189   22.1544 H   0  0  0  0  0  0  0  0  0  0  0  0
   20.7158   21.6429   20.7193 H   0  0  0  0  0  0  0  0  0  0  0  0
   20.5003   20.5503   22.6014 C   0  0  0  0  0  0  0  0  0  0  0  0
   21.5644   20.2980   22.7045 H   0  0  0  0  0  0  0  0  0  0  0  0
   20.1230   20.7498   23.6140 H   0  0  0  0  0  0  0  0  0  0  0  0
   19.7484   19.3466   21.9904 C   0  0  0  0  0  0  0  0  0  0  0  0
   20.1200   19.1595   20.9735 H   0  0  0  0  0  0  0  0  0  0  0  0
   18.6796   19.5851   21.8998 H   0  0  0  0  0  0  0  0  0  0  0  0
   19.9189   18.0723   22.8451 C   0  0  0  0  0  0  0  0  0  0  0  0
   20.9868   17.8300   22.9347 H   0  0  0  0  0  0  0  0  0  0  0  0
   19.5470   18.2601   23.8617 H   0  0  0  0  0  0  0  0  0  0  0  0
   19.1676   16.8699   22.2359 C   0  0  0  0  0  0  0  0  0  0  0  0
   19.5382   16.6780   21.2194 H   0  0  0  0  0  0  0  0  0  0  0  0
   18.0986   17.1080   22.1464 H   0  0  0  0  0  0  0  0  0  0  0  0
   19.3397   15.5995   23.0925 C   0  0  0  0  0  0  0  0  0  0  0  0
   20.3984   15.3202   23.1726 H   0  0  0  0  0  0  0  0  0  0  0  0
   18.7993   14.7551   22.6450 H   0  0  0  0  0  0  0  0  0  0  0  0
   18.9480   15.7534   24.1065 H   0  0  0  0  0  0  0  0  0  0  0  0
  1  2  1  0  0  0  0
  1  3  2  0  0  0  0
  1  4  1  0  0  0  0
  4  5  1  0  0  0  0
  4  6  1  0  0  0  0
  4  7  1  0  0  0  0
  7  8  1  0  0  0  0
  7  9  1  0  0  0  0
  7 10  1  0  0  0  0
 10 11  1  0  0  0  0
 10 12  1  0  0  0  0
 10 13  1  0  0  0  0
 13 14  1  0  0  0  0
 13 15  1  0  0  0  0
 13 16  1  0  0  0  0
 16 17  1  0  0  0  0
 16 18  1  0  0  0  0
 16 19  1  0  0  0  0
 19 20  1  0  0  0  0
 19 21  1  0  0  0  0
 19 22  1  0  0  0  0
M  END
> <VConfSearch Rank>
790

> <Conf_Id>
44

> <Delta U+W>
-0.155

> <U+W>
-53.314

> <U>
7.937

> <W>
-61.252

> <W(PB)>
-63.556

> <W(SA)>
2.304

> <Valence>
7.358

> <Coulomb>
-0.021

> <VdW>
0.600

> <VdW6>
-7.363

> <VdW12>
7.964

> <Bond>
0.121

> <Angle>
2.425

> <Pdih>
4.811

> <Idih>
0.001

> <Tether>
0.000

$$$$
VeraChem MOL file


 22 21  0  0  0  0  0  0  0  0999 V2000     
   20.6670   20.9703   25.1126 C   0  0  0  0  0  0  0  0  0  0  0  0
   19.9427   20.7509   26.0635 O   0  5  0  0  0  0  0  0  0  0  0  0
   20.9286   22.0869   24.7105 O   0  0  0  0  0  0  0  0  0  0  0  0
   21.2966   19.7779   24.3978 C   0  0  0  0  0  0  0  0  0  0  0  0
   21.6898   19.1049   25.1689 H   0  0  0  0  0  0  0  0  0  0  0  0
   22.1568   20.1316   23.8167 H   0  0  0  0  0  0  0  0  0  0  0  0
   20.3161   18.9991   23.4826 C   0  0  0  0  0  0  0  0  0  0  0  0
   20.8134   18.0824   23.1413 H   0  0  0  0  0  0  0  0  0  0  0  0
   19.4413   18.6864   24.0693 H   0  0  0  0  0  0  0  0  0  0  0  0
   19.8581   19.8301   22.2599 C   0  0  0  0  0  0  0  0  0  0  0  0
   20.7302   20.1060   21.6515 H   0  0  0  0  0  0  0  0  0  0  0  0
   19.4151   20.7724   22.6101 H   0  0  0  0  0  0  0  0  0  0  0  0
   18.8175   19.1033   21.3751 C   0  0  0  0  0  0  0  0  0  0  0  0
   17.9457   18.8274   21.9839 H   0  0  0  0  0  0  0  0  0  0  0  0
   18.4545   19.8089   20.6153 H   0  0  0  0  0  0  0  0  0  0  0  0
   19.3771   17.8489   20.6668 C   0  0  0  0  0  0  0  0  0  0  0  0
   19.6722   17.0952   21.4084 H   0  0  0  0  0  0  0  0  0  0  0  0
   20.2811   18.1146   20.1016 H   0  0  0  0  0  0  0  0  0  0  0  0
   18.3386   17.2298   19.7097 C   0  0  0  0  0  0  0  0  0  0  0  0
   17.4335   16.9296   20.2539 H   0  0  0  0  0  0  0  0  0  0  0  0
   18.7493   16.3388   19.2173 H   0  0  0  0  0  0  0  0  0  0  0  0
   18.0481   17.9447   18.9288 H   0  0  0  0  0  0  0  0  0  0  0  0
  1  2  1  0  0  0  0
  1  3  2  0  0  0  0
  1  4  1  0  0  0  0
  4  5  1  0  0  0  0
  4  6  1  0  0  0  0
  4  7  1  0  0  0  0
  7  8  1  0  0  0  0
  7  9  1  0  0  0  0
  7 10  1  0  0  0  0
 10 11  1  0  0  0  0
 10 12  1  0  0  0  0
 10 13  1  0  0  0  0
 13 14  1  0  0  0  0
 13 15  1  0  0  0  0
 13 16  1  0  0  0  0
 16 17  1  0  0  0  0
 16 18  1  0  0  0  0
 16 19  1  0  0  0  0
 19 20  1  0  0  0  0
 19 21  1  0  0  0  0
 19 22  1  0  0  0  0
M  END
> <VConfSearch Rank>
791

> <Conf_Id>
53

> <Delta U+W>
0.723

> <U+W>
-52.436

> <U>
8.587

> <W>
-61.022

> <W(PB)>
-63.285

> <W(SA)>
2.263

> <Valence>
7.933

> <Coulomb>
-0.124

> <VdW>
0.778

> <VdW6>
-7.981

> <VdW12>
8.759

> <Bond>
0.160

> <Angle>
2.698

> <Pdih>
5.074

> <Idih>
0.001

> <Tether>
0.000

$$$$
VeraChem MOL file


 22 21  0  0  0  0  0  0  0  0999 V2000     
   19.7817   21.2609   19.8946 C   0  0  0  0  0  0  0  0  0  0  0  0
   20.6364   22.0912   20.1324 O   0  5  0  0  0  0  0  0  0  0  0  0
   19.1179   21.2514   18.8768 O   0  0  0  0  0  0  0  0  0  0  0  0
   19.5442   20.1574   20.9192 C   0  0  0  0  0  0  0  0  0  0  0  0
   18.4887   19.8648   20.8668 H   0  0  0  0  0  0  0  0  0  0  0  0
   19.7201   20.5847   21.9128 H   0  0  0  0  0  0  0  0  0  0  0  0
   20.4545   18.9237   20.6947 C   0  0  0  0  0  0  0  0  0  0  0  0
   20.3587   18.6014   19.6485 H   0  0  0  0  0  0  0  0  0  0  0  0
   21.5040   19.2198   20.8299 H   0  0  0  0  0  0  0  0  0  0  0  0
   20.1329   17.7171   21.6119 C   0  0  0  0  0  0  0  0  0  0  0  0
   20.8061   16.8969   21.3272 H   0  0  0  0  0  0  0  0  0  0  0  0
   19.1164   17.3514   21.4120 H   0  0  0  0  0  0  0  0  0  0  0  0
   20.3183   17.9897   23.1262 C   0  0  0  0  0  0  0  0  0  0  0  0
   20.7141   17.0797   23.5976 H   0  0  0  0  0  0  0  0  0  0  0  0
   21.0780   18.7683   23.2794 H   0  0  0  0  0  0  0  0  0  0  0  0
   19.0038   18.3704   23.8459 C   0  0  0  0  0  0  0  0  0  0  0  0
   18.2738   17.5572   23.7322 H   0  0  0  0  0  0  0  0  0  0  0  0
   18.5560   19.2602   23.3874 H   0  0  0  0  0  0  0  0  0  0  0  0
   19.2378   18.6376   25.3463 C   0  0  0  0  0  0  0  0  0  0  0  0
   19.6490   17.7498   25.8443 H   0  0  0  0  0  0  0  0  0  0  0  0
   18.2952   18.8995   25.8442 H   0  0  0  0  0  0  0  0  0  0  0  0
   19.9403   19.4687   25.4917 H   0  0  0  0  0  0  0  0  0  0  0  0
  1  2  1  0  0  0  0
  1  3  2  0  0  0  0
  1  4  1  0  0  0  0
  4  5  1  0  0  0  0
  4  6  1  0  0  0  0
  4  7  1  0  0  0  0
  7  8  1  0  0  0  0
  7  9  1  0  0  0  0
  7 10  1  0  0  0  0
 10 11  1  0  0  0  0
 10 12  1  0  0  0  0
 10 13  1  0  0  0  0
 13 14  1  0  0  0  0
 13 15  1  0  0  0  0
 13 16  1  0  0  0  0
 16 17  1  0  0  0  0
 16 18  1  0  0  0  0
 16 19  1  0  0  0  0
 19 20  1  0  0  0  0
 19 21  1  0  0  0  0
 19 22  1  0  0  0  0
M  END
> <VConfSearch Rank>
792

> <Conf_Id>
5

> <Delta U+W>
2.167

> <U+W>
-50.993

> <U>
10.045

> <W>
-61.037

> <W(PB)>
-63.303

> <W(SA)>
2.266

> <Valence>
10.100

> <Coulomb>
-0.883

> <VdW>
0.828

> <VdW6>
-8.177

> <VdW12>
9.005

> <Bond>
0.182

> <Angle>
2.988

> <Pdih>
6.930

> <Idih>
0.001

> <Tether>
0.000

$$$$
VeraChem MOL file


 22 21  0  0  0  0  0  0  0  0999 V2000     
   17.3536   20.2796   20.6343 C   0  0  0  0  0  0  0  0  0  0  0  0
   16.4518   20.5490   21.4030 O   0  5  0  0  0  0  0  0  0  0  0  0
   17.2784   20.4288   19.4307 O   0  0  0  0  0  0  0  0  0  0  0  0
   18.6417   19.7014   21.2089 C   0  0  0  0  0  0  0  0  0  0  0  0
   18.7956   20.1519   22.1959 H   0  0  0  0  0  0  0  0  0  0  0  0
   19.4732   20.0172   20.5676 H   0  0  0  0  0  0  0  0  0  0  0  0
   18.6082   18.1563   21.3216 C   0  0  0  0  0  0  0  0  0  0  0  0
   17.8211   17.8628   22.0298 H   0  0  0  0  0  0  0  0  0  0  0  0
   18.3168   17.7387   20.3479 H   0  0  0  0  0  0  0  0  0  0  0  0
   19.9542   17.5175   21.7471 C   0  0  0  0  0  0  0  0  0  0  0  0
   20.7252   17.7236   20.9921 H   0  0  0  0  0  0  0  0  0  0  0  0
   19.8180   16.4273   21.7443 H   0  0  0  0  0  0  0  0  0  0  0  0
   20.4526   17.9377   23.1530 C   0  0  0  0  0  0  0  0  0  0  0  0
   19.5991   18.1992   23.7935 H   0  0  0  0  0  0  0  0  0  0  0  0
   20.9342   17.0704   23.6251 H   0  0  0  0  0  0  0  0  0  0  0  0
   21.4761   19.0962   23.1197 C   0  0  0  0  0  0  0  0  0  0  0  0
   21.0465   19.9773   22.6282 H   0  0  0  0  0  0  0  0  0  0  0  0
   22.3491   18.7980   22.5230 H   0  0  0  0  0  0  0  0  0  0  0  0
   21.9382   19.4832   24.5388 C   0  0  0  0  0  0  0  0  0  0  0  0
   21.0896   19.8172   25.1501 H   0  0  0  0  0  0  0  0  0  0  0  0
   22.6691   20.3012   24.4980 H   0  0  0  0  0  0  0  0  0  0  0  0
   22.4110   18.6311   25.0444 H   0  0  0  0  0  0  0  0  0  0  0  0
  1  2  1  0  0  0  0
  1  3  2  0  0  0  0
  1  4  1  0  0  0  0
  4  5  1  0  0  0  0
  4  6  1  0  0  0  0
  4  7  1  0  0  0  0
  7  8  1  0  0  0  0
  7  9  1  0  0  0  0
  7 10  1  0  0  0  0
 10 11  1  0  0  0  0
 10 12  1  0  0  0  0
 10 13  1  0  0  0  0
 13 14  1  0  0  0  0
 13 15  1  0  0  0  0
 13 16  1  0  0  0  0
 16 17  1  0  0  0  0
 16 18  1  0  0  0  0
 16 19  1  0  0  0  0
 19 20  1  0  0  0  0
 19 21  1  0  0  0  0
 19 22  1  0  0  0  0
M  END
> <VConfSearch Rank>
793

> <Conf_Id>
6

> <Delta U+W>
2.118

> <U+W>
-51.042

> <U>
10.045

> <W>
-61.086

> <W(PB)>
-63.356

> <W(SA)>
2.270

> <Valence>
10.100

> <Coulomb>
-0.883

> <VdW>
0.828

> <VdW6>
-8.177

> <VdW12>
9.004

> <Bond>
0.182

> <Angle>
2.988

> <Pdih>
6.930

> <Idih>
0.001

> <Tether>
0.000

$$$$
VeraChem MOL file


 22 21  0  0  0  0  0  0  0  0999 V2000     
   19.7731   18.1682   25.1865 C   0  0  0  0  0  0  0  0  0  0  0  0
   20.2837   17.0651   25.1794 O   0  5  0  0  0  0  0  0  0  0  0  0
   18.6024   18.3631   25.4482 O   0  0  0  0  0  0  0  0  0  0  0  0
   20.6633   19.3811   24.9224 C   0  0  0  0  0  0  0  0  0  0  0  0
   21.4001   19.4050   25.7337 H   0  0  0  0  0  0  0  0  0  0  0  0
   20.0614   20.2929   25.0183 H   0  0  0  0  0  0  0  0  0  0  0  0
   21.4119   19.3709   23.5598 C   0  0  0  0  0  0  0  0  0  0  0  0
   22.2650   20.0585   23.6368 H   0  0  0  0  0  0  0  0  0  0  0  0
   21.8414   18.3763   23.3757 H   0  0  0  0  0  0  0  0  0  0  0  0
   20.5577   19.8135   22.3460 C   0  0  0  0  0  0  0  0  0  0  0  0
   21.2239   19.9165   21.4786 H   0  0  0  0  0  0  0  0  0  0  0  0
   20.1385   20.8116   22.5333 H   0  0  0  0  0  0  0  0  0  0  0  0
   19.4202   18.8318   21.9843 C   0  0  0  0  0  0  0  0  0  0  0  0
   19.8247   17.8140   21.8978 H   0  0  0  0  0  0  0  0  0  0  0  0
   18.6734   18.8137   22.7881 H   0  0  0  0  0  0  0  0  0  0  0  0
   18.7248   19.2260   20.6641 C   0  0  0  0  0  0  0  0  0  0  0  0
   19.4594   19.2398   19.8471 H   0  0  0  0  0  0  0  0  0  0  0  0
   18.3212   20.2445   20.7485 H   0  0  0  0  0  0  0  0  0  0  0  0
   17.5844   18.2506   20.3099 C   0  0  0  0  0  0  0  0  0  0  0  0
   17.9658   17.2282   20.1888 H   0  0  0  0  0  0  0  0  0  0  0  0
   17.1004   18.5457   19.3698 H   0  0  0  0  0  0  0  0  0  0  0  0
   16.8188   18.2397   21.0969 H   0  0  0  0  0  0  0  0  0  0  0  0
  1  2  1  0  0  0  0
  1  3  2  0  0  0  0
  1  4  1  0  0  0  0
  4  5  1  0  0  0  0
  4  6  1  0  0  0  0
  4  7  1  0  0  0  0
  7  8  1  0  0  0  0
  7  9  1  0  0  0  0
  7 10  1  0  0  0  0
 10 11  1  0  0  0  0
 10 12  1  0  0  0  0
 10 13  1  0  0  0  0
 13 14  1  0  0  0  0
 13 15  1  0  0  0  0
 13 16  1  0  0  0  0
 16 17  1  0  0  0  0
 16 18  1  0  0  0  0
 16 19  1  0  0  0  0
 19 20  1  0  0  0  0
 19 21  1  0  0  0  0
 19 22  1  0  0  0  0
M  END
> <VConfSearch Rank>
794

> <Conf_Id>
8

> <Delta U+W>
1.886

> <U+W>
-51.274

> <U>
11.237

> <W>
-62.510

> <W(PB)>
-64.777

> <W(SA)>
2.267

> <Valence>
9.029

> <Coulomb>
1.667

> <VdW>
0.540

> <VdW6>
-8.825

> <VdW12>
9.365

> <Bond>
0.186

> <Angle>
3.195

> <Pdih>
5.642

> <Idih>
0.007

> <Tether>
0.000

$$$$
VeraChem MOL file


 22 21  0  0  0  0  0  0  0  0999 V2000     
   16.6498   18.9626   23.0514 C   0  0  0  0  0  0  0  0  0  0  0  0
   16.5535   20.0331   22.4844 O   0  5  0  0  0  0  0  0  0  0  0  0
   16.1448   18.7264   24.1314 O   0  0  0  0  0  0  0  0  0  0  0  0
   17.4208   17.8430   22.3579 C   0  0  0  0  0  0  0  0  0  0  0  0
   17.5635   18.1138   21.3058 H   0  0  0  0  0  0  0  0  0  0  0  0
   16.7792   16.9542   22.3636 H   0  0  0  0  0  0  0  0  0  0  0  0
   18.7799   17.4982   23.0267 C   0  0  0  0  0  0  0  0  0  0  0  0
   18.5886   17.1558   24.0531 H   0  0  0  0  0  0  0  0  0  0  0  0
   19.2358   16.6492   22.4997 H   0  0  0  0  0  0  0  0  0  0  0  0
   19.7908   18.6705   23.0748 C   0  0  0  0  0  0  0  0  0  0  0  0
   20.6658   18.3394   23.6481 H   0  0  0  0  0  0  0  0  0  0  0  0
   19.3564   19.5124   23.6311 H   0  0  0  0  0  0  0  0  0  0  0  0
   20.2433   19.1520   21.6745 C   0  0  0  0  0  0  0  0  0  0  0  0
   20.6603   18.3087   21.1076 H   0  0  0  0  0  0  0  0  0  0  0  0
   19.3690   19.5060   21.1131 H   0  0  0  0  0  0  0  0  0  0  0  0
   21.2750   20.3032   21.7246 C   0  0  0  0  0  0  0  0  0  0  0  0
   20.8661   21.1423   22.3044 H   0  0  0  0  0  0  0  0  0  0  0  0
   21.4313   20.6790   20.7040 H   0  0  0  0  0  0  0  0  0  0  0  0
   22.6398   19.8806   22.3104 C   0  0  0  0  0  0  0  0  0  0  0  0
   22.5562   19.6112   23.3705 H   0  0  0  0  0  0  0  0  0  0  0  0
   23.3613   20.7043   22.2339 H   0  0  0  0  0  0  0  0  0  0  0  0
   23.0511   19.0199   21.7671 H   0  0  0  0  0  0  0  0  0  0  0  0
  1  2  1  0  0  0  0
  1  3  2  0  0  0  0
  1  4  1  0  0  0  0
  4  5  1  0  0  0  0
  4  6  1  0  0  0  0
  4  7  1  0  0  0  0
  7  8  1  0  0  0  0
  7  9  1  0  0  0  0
  7 10  1  0  0  0  0
 10 11  1  0  0  0  0
 10 12  1  0  0  0  0
 10 13  1  0  0  0  0
 13 14  1  0  0  0  0
 13 15  1  0  0  0  0
 13 16  1  0  0  0  0
 16 17  1  0  0  0  0
 16 18  1  0  0  0  0
 16 19  1  0  0  0  0
 19 20  1  0  0  0  0
 19 21  1  0  0  0  0
 19 22  1  0  0  0  0
M  END
> <VConfSearch Rank>
795

> <Conf_Id>
93

> <Delta U+W>
1.836

> <U+W>
-51.323

> <U>
10.427

> <W>
-61.751

> <W(PB)>
-63.980

> <W(SA)>
2.230

> <Valence>
8.446

> <Coulomb>
1.306

> <VdW>
0.676

> <VdW6>
-8.928

> <VdW12>
9.604

> <Bond>
0.209

> <Angle>
3.066

> <Pdih>
5.170

> <Idih>
0.001

> <Tether>
0.000

$$$$
VeraChem MOL file


 22 21  0  0  0  0  0  0  0  0999 V2000     
   21.6612   20.7812   20.7203 C   0  0  0  0  0  0  0  0  0  0  0  0
   21.9051   21.9620   20.8737 O   0  5  0  0  0  0  0  0  0  0  0  0
   21.1466   20.3261   19.7179 O   0  0  0  0  0  0  0  0  0  0  0  0
   22.0508   19.8157   21.8361 C   0  0  0  0  0  0  0  0  0  0  0  0
   23.0953   20.0236   22.0962 H   0  0  0  0  0  0  0  0  0  0  0  0
   22.0288   18.7940   21.4405 H   0  0  0  0  0  0  0  0  0  0  0  0
   21.1722   19.9308   23.1120 C   0  0  0  0  0  0  0  0  0  0  0  0
   21.5574   19.2444   23.8781 H   0  0  0  0  0  0  0  0  0  0  0  0
   21.2828   20.9436   23.5235 H   0  0  0  0  0  0  0  0  0  0  0  0
   19.6663   19.6487   22.8857 C   0  0  0  0  0  0  0  0  0  0  0  0
   19.2636   20.3545   22.1464 H   0  0  0  0  0  0  0  0  0  0  0  0
   19.1390   19.8517   23.8263 H   0  0  0  0  0  0  0  0  0  0  0  0
   19.3725   18.1977   22.4320 C   0  0  0  0  0  0  0  0  0  0  0  0
   19.8809   18.0065   21.4781 H   0  0  0  0  0  0  0  0  0  0  0  0
   19.7909   17.4884   23.1588 H   0  0  0  0  0  0  0  0  0  0  0  0
   17.8659   17.9091   22.2346 C   0  0  0  0  0  0  0  0  0  0  0  0
   17.7556   16.9158   21.7781 H   0  0  0  0  0  0  0  0  0  0  0  0
   17.4415   18.6275   21.5196 H   0  0  0  0  0  0  0  0  0  0  0  0
   17.0563   17.9418   23.5493 C   0  0  0  0  0  0  0  0  0  0  0  0
   17.0344   18.9491   23.9830 H   0  0  0  0  0  0  0  0  0  0  0  0
   17.4846   17.2557   24.2916 H   0  0  0  0  0  0  0  0  0  0  0  0
   16.0177   17.6368   23.3674 H   0  0  0  0  0  0  0  0  0  0  0  0
  1  2  1  0  0  0  0
  1  3  2  0  0  0  0
  1  4  1  0  0  0  0
  4  5  1  0  0  0  0
  4  6  1  0  0  0  0
  4  7  1  0  0  0  0
  7  8  1  0  0  0  0
  7  9  1  0  0  0  0
  7 10  1  0  0  0  0
 10 11  1  0  0  0  0
 10 12  1  0  0  0  0
 10 13  1  0  0  0  0
 13 14  1  0  0  0  0
 13 15  1  0  0  0  0
 13 16  1  0  0  0  0
 16 17  1  0  0  0  0
 16 18  1  0  0  0  0
 16 19  1  0  0  0  0
 19 20  1  0  0  0  0
 19 21  1  0  0  0  0
 19 22  1  0  0  0  0
M  END
> <VConfSearch Rank>
796

> <Conf_Id>
70

> <Delta U+W>
1.803

> <U+W>
-51.356

> <U>
10.428

> <W>
-61.784

> <W(PB)>
-64.014

> <W(SA)>
2.230

> <Valence>
8.445

> <Coulomb>
1.306

> <VdW>
0.676

> <VdW6>
-8.929

> <VdW12>
9.605

> <Bond>
0.209

> <Angle>
3.066

> <Pdih>
5.170

> <Idih>
0.001

> <Tether>
0.000

$$$$
VeraChem MOL file


 22 21  0  0  0  0  0  0  0  0999 V2000     
   18.2683   16.5787   20.6284 C   0  0  0  0  0  0  0  0  0  0  0  0
   17.8602   15.8112   21.4777 O   0  5  0  0  0  0  0  0  0  0  0  0
   19.0298   16.2539   19.7387 O   0  0  0  0  0  0  0  0  0  0  0  0
   17.7799   18.0240   20.6710 C   0  0  0  0  0  0  0  0  0  0  0  0
   16.6976   18.0000   20.8445 H   0  0  0  0  0  0  0  0  0  0  0  0
   17.9328   18.4745   19.6828 H   0  0  0  0  0  0  0  0  0  0  0  0
   18.4609   18.8866   21.7651 C   0  0  0  0  0  0  0  0  0  0  0  0
   17.9613   19.8637   21.8114 H   0  0  0  0  0  0  0  0  0  0  0  0
   18.3110   18.4063   22.7410 H   0  0  0  0  0  0  0  0  0  0  0  0
   19.9706   19.0969   21.4985 C   0  0  0  0  0  0  0  0  0  0  0  0
   20.1015   19.4965   20.4835 H   0  0  0  0  0  0  0  0  0  0  0  0
   20.4916   18.1297   21.5194 H   0  0  0  0  0  0  0  0  0  0  0  0
   20.6437   20.0665   22.4987 C   0  0  0  0  0  0  0  0  0  0  0  0
   21.6734   20.2521   22.1639 H   0  0  0  0  0  0  0  0  0  0  0  0
   20.1294   21.0369   22.4740 H   0  0  0  0  0  0  0  0  0  0  0  0
   20.6765   19.5308   23.9479 C   0  0  0  0  0  0  0  0  0  0  0  0
   21.1436   18.5364   23.9647 H   0  0  0  0  0  0  0  0  0  0  0  0
   19.6543   19.4112   24.3303 H   0  0  0  0  0  0  0  0  0  0  0  0
   21.4543   20.4781   24.8835 C   0  0  0  0  0  0  0  0  0  0  0  0
   22.4950   20.5909   24.5523 H   0  0  0  0  0  0  0  0  0  0  0  0
   21.4659   20.0856   25.9086 H   0  0  0  0  0  0  0  0  0  0  0  0
   20.9918   21.4735   24.9067 H   0  0  0  0  0  0  0  0  0  0  0  0
  1  2  1  0  0  0  0
  1  3  2  0  0  0  0
  1  4  1  0  0  0  0
  4  5  1  0  0  0  0
  4  6  1  0  0  0  0
  4  7  1  0  0  0  0
  7  8  1  0  0  0  0
  7  9  1  0  0  0  0
  7 10  1  0  0  0  0
 10 11  1  0  0  0  0
 10 12  1  0  0  0  0
 10 13  1  0  0  0  0
 13 14  1  0  0  0  0
 13 15  1  0  0  0  0
 13 16  1  0  0  0  0
 16 17  1  0  0  0  0
 16 18  1  0  0  0  0
 16 19  1  0  0  0  0
 19 20  1  0  0  0  0
 19 21  1  0  0  0  0
 19 22  1  0  0  0  0
M  END
> <VConfSearch Rank>
797

> <Conf_Id>
85

> <Delta U+W>
0.707

> <U+W>
-52.452

> <U>
8.925

> <W>
-61.378

> <W(PB)>
-63.661

> <W(SA)>
2.283

> <Valence>
7.881

> <Coulomb>
0.349

> <VdW>
0.695

> <VdW6>
-8.049

> <VdW12>
8.743

> <Bond>
0.156

> <Angle>
2.660

> <Pdih>
5.064

> <Idih>
0.001

> <Tether>
0.000

$$$$
VeraChem MOL file


 22 21  0  0  0  0  0  0  0  0999 V2000     
   17.8466   21.3071   21.3024 C   0  0  0  0  0  0  0  0  0  0  0  0
   17.6366   21.2400   20.1073 O   0  5  0  0  0  0  0  0  0  0  0  0
   16.9721   21.4720   22.1302 O   0  0  0  0  0  0  0  0  0  0  0  0
   19.2887   21.2019   21.7908 C   0  0  0  0  0  0  0  0  0  0  0  0
   19.4464   22.0060   22.5191 H   0  0  0  0  0  0  0  0  0  0  0  0
   19.9604   21.4017   20.9471 H   0  0  0  0  0  0  0  0  0  0  0  0
   19.6385   19.8386   22.4425 C   0  0  0  0  0  0  0  0  0  0  0  0
   20.6341   19.9182   22.8967 H   0  0  0  0  0  0  0  0  0  0  0  0
   18.9290   19.6296   23.2550 H   0  0  0  0  0  0  0  0  0  0  0  0
   19.6323   18.6738   21.4255 C   0  0  0  0  0  0  0  0  0  0  0  0
   20.4043   18.8501   20.6641 H   0  0  0  0  0  0  0  0  0  0  0  0
   18.6720   18.6658   20.8919 H   0  0  0  0  0  0  0  0  0  0  0  0
   19.8426   17.2754   22.0584 C   0  0  0  0  0  0  0  0  0  0  0  0
   19.0229   17.0500   22.7543 H   0  0  0  0  0  0  0  0  0  0  0  0
   19.7618   16.5332   21.2525 H   0  0  0  0  0  0  0  0  0  0  0  0
   21.2105   17.0787   22.7586 C   0  0  0  0  0  0  0  0  0  0  0  0
   21.9691   17.7302   22.3032 H   0  0  0  0  0  0  0  0  0  0  0  0
   21.5491   16.0481   22.5844 H   0  0  0  0  0  0  0  0  0  0  0  0
   21.1520   17.3098   24.2851 C   0  0  0  0  0  0  0  0  0  0  0  0
   20.8338   18.3289   24.5322 H   0  0  0  0  0  0  0  0  0  0  0  0
   22.1397   17.1484   24.7359 H   0  0  0  0  0  0  0  0  0  0  0  0
   20.4491   16.6119   24.7585 H   0  0  0  0  0  0  0  0  0  0  0  0
  1  2  1  0  0  0  0
  1  3  2  0  0  0  0
  1  4  1  0  0  0  0
  4  5  1  0  0  0  0
  4  6  1  0  0  0  0
  4  7  1  0  0  0  0
  7  8  1  0  0  0  0
  7  9  1  0  0  0  0
  7 10  1  0  0  0  0
 10 11  1  0  0  0  0
 10 12  1  0  0  0  0
 10 13  1  0  0  0  0
 13 14  1  0  0  0  0
 13 15  1  0  0  0  0
 13 16  1  0  0  0  0
 16 17  1  0  0  0  0
 16 18  1  0  0  0  0
 16 19  1  0  0  0  0
 19 20  1  0  0  0  0
 19 21  1  0  0  0  0
 19 22  1  0  0  0  0
M  END
> <VConfSearch Rank>
798

> <Conf_Id>
82

> <Delta U+W>
3.438

> <U+W>
-49.721

> <U>
11.773

> <W>
-61.495

> <W(PB)>
-63.749

> <W(SA)>
2.254

> <Valence>
10.419

> <Coulomb>
0.565

> <VdW>
0.789

> <VdW6>
-8.847

> <VdW12>
9.636

> <Bond>
0.200

> <Angle>
3.187

> <Pdih>
7.032

> <Idih>
0.001

> <Tether>
0.000

$$$$
VeraChem MOL file


 22 21  0  0  0  0  0  0  0  0999 V2000     
   19.9518   15.5922   21.9690 C   0  0  0  0  0  0  0  0  0  0  0  0
   18.8331   15.1721   22.1900 O   0  5  0  0  0  0  0  0  0  0  0  0
   20.6229   15.2479   21.0160 O   0  0  0  0  0  0  0  0  0  0  0  0
   20.5540   16.5888   22.9557 C   0  0  0  0  0  0  0  0  0  0  0  0
   21.6424   16.6017   22.8214 H   0  0  0  0  0  0  0  0  0  0  0  0
   20.3632   16.2052   23.9648 H   0  0  0  0  0  0  0  0  0  0  0  0
   19.9824   18.0254   22.8325 C   0  0  0  0  0  0  0  0  0  0  0  0
   18.8878   17.9918   22.9218 H   0  0  0  0  0  0  0  0  0  0  0  0
   20.3564   18.6195   23.6758 H   0  0  0  0  0  0  0  0  0  0  0  0
   20.3814   18.7130   21.5061 C   0  0  0  0  0  0  0  0  0  0  0  0
   20.1048   18.0626   20.6651 H   0  0  0  0  0  0  0  0  0  0  0  0
   21.4739   18.8194   21.4647 H   0  0  0  0  0  0  0  0  0  0  0  0
   19.7201   20.0961   21.2824 C   0  0  0  0  0  0  0  0  0  0  0  0
   20.0323   20.4545   20.2920 H   0  0  0  0  0  0  0  0  0  0  0  0
   18.6282   19.9871   21.2291 H   0  0  0  0  0  0  0  0  0  0  0  0
   20.1015   21.1747   22.3269 C   0  0  0  0  0  0  0  0  0  0  0  0
   20.1820   22.1446   21.8167 H   0  0  0  0  0  0  0  0  0  0  0  0
   21.0962   20.9662   22.7445 H   0  0  0  0  0  0  0  0  0  0  0  0
   19.0628   21.3177   23.4617 C   0  0  0  0  0  0  0  0  0  0  0  0
   18.0811   21.5984   23.0587 H   0  0  0  0  0  0  0  0  0  0  0  0
   19.3713   22.0992   24.1682 H   0  0  0  0  0  0  0  0  0  0  0  0
   18.9425   20.3856   24.0253 H   0  0  0  0  0  0  0  0  0  0  0  0
  1  2  1  0  0  0  0
  1  3  2  0  0  0  0
  1  4  1  0  0  0  0
  4  5  1  0  0  0  0
  4  6  1  0  0  0  0
  4  7  1  0  0  0  0
  7  8  1  0  0  0  0
  7  9  1  0  0  0  0
  7 10  1  0  0  0  0
 10 11  1  0  0  0  0
 10 12  1  0  0  0  0
 10 13  1  0  0  0  0
 13 14  1  0  0  0  0
 13 15  1  0  0  0  0
 13 16  1  0  0  0  0
 16 17  1  0  0  0  0
 16 18  1  0  0  0  0
 16 19  1  0  0  0  0
 19 20  1  0  0  0  0
 19 21  1  0  0  0  0
 19 22  1  0  0  0  0
M  END
> <VConfSearch Rank>
799

> <Conf_Id>
94

> <Delta U+W>
3.471

> <U+W>
-49.688

> <U>
11.773

> <W>
-61.461

> <W(PB)>
-63.710

> <W(SA)>
2.248

> <Valence>
10.419

> <Coulomb>
0.566

> <VdW>
0.789

> <VdW6>
-8.847

> <VdW12>
9.636

> <Bond>
0.200

> <Angle>
3.187

> <Pdih>
7.032

> <Idih>
0.001

> <Tether>
0.000

$$$$
VeraChem MOL file


 22 21  0  0  0  0  0  0  0  0999 V2000     
   22.8980   17.9499   22.8893 C   0  0  0  0  0  0  0  0  0  0  0  0
   23.7560   17.5418   22.1316 O   0  5  0  0  0  0  0  0  0  0  0  0
   22.7895   17.5833   24.0427 O   0  0  0  0  0  0  0  0  0  0  0  0
   21.8908   18.9631   22.3573 C   0  0  0  0  0  0  0  0  0  0  0  0
   22.3964   19.5871   21.6109 H   0  0  0  0  0  0  0  0  0  0  0  0
   21.6043   19.6170   23.1888 H   0  0  0  0  0  0  0  0  0  0  0  0
   20.6380   18.2939   21.7350 C   0  0  0  0  0  0  0  0  0  0  0  0
   20.9640   17.5845   20.9620 H   0  0  0  0  0  0  0  0  0  0  0  0
   20.1233   17.6957   22.4985 H   0  0  0  0  0  0  0  0  0  0  0  0
   19.6519   19.3030   21.0949 C   0  0  0  0  0  0  0  0  0  0  0  0
   18.8247   18.7474   20.6338 H   0  0  0  0  0  0  0  0  0  0  0  0
   20.1596   19.8193   20.2689 H   0  0  0  0  0  0  0  0  0  0  0  0
   19.0753   20.3683   22.0643 C   0  0  0  0  0  0  0  0  0  0  0  0
   19.8843   21.0302   22.4000 H   0  0  0  0  0  0  0  0  0  0  0  0
   18.3803   21.0099   21.5057 H   0  0  0  0  0  0  0  0  0  0  0  0
   18.3425   19.8021   23.3054 C   0  0  0  0  0  0  0  0  0  0  0  0
   18.0041   20.6430   23.9262 H   0  0  0  0  0  0  0  0  0  0  0  0
   19.0414   19.2272   23.9276 H   0  0  0  0  0  0  0  0  0  0  0  0
   17.1224   18.9268   22.9466 C   0  0  0  0  0  0  0  0  0  0  0  0
   16.4175   19.4774   22.3104 H   0  0  0  0  0  0  0  0  0  0  0  0
   16.5894   18.6192   23.8555 H   0  0  0  0  0  0  0  0  0  0  0  0
   17.4275   18.0164   22.4154 H   0  0  0  0  0  0  0  0  0  0  0  0
  1  2  1  0  0  0  0
  1  3  2  0  0  0  0
  1  4  1  0  0  0  0
  4  5  1  0  0  0  0
  4  6  1  0  0  0  0
  4  7  1  0  0  0  0
  7  8  1  0  0  0  0
  7  9  1  0  0  0  0
  7 10  1  0  0  0  0
 10 11  1  0  0  0  0
 10 12  1  0  0  0  0
 10 13  1  0  0  0  0
 13 14  1  0  0  0  0
 13 15  1  0  0  0  0
 13 16  1  0  0  0  0
 16 17  1  0  0  0  0
 16 18  1  0  0  0  0
 16 19  1  0  0  0  0
 19 20  1  0  0  0  0
 19 21  1  0  0  0  0
 19 22  1  0  0  0  0
M  END
> <VConfSearch Rank>
800

> <Conf_Id>
56

> <Delta U+W>
0.853

> <U+W>
-52.307

> <U>
8.874

> <W>
-61.181

> <W(PB)>
-63.413

> <W(SA)>
2.232

> <Valence>
8.479

> <Coulomb>
-0.357

> <VdW>
0.753

> <VdW6>
-9.081

> <VdW12>
9.833

> <Bond>
0.221

> <Angle>
3.208

> <Pdih>
5.050

> <Idih>
0.000

> <Tether>
0.000

$$$$
VeraChem MOL file


 22 21  0  0  0  0  0  0  0  0999 V2000     
   23.0227   19.3840   24.6101 C   0  0  0  0  0  0  0  0  0  0  0  0
   23.4500   20.3389   23.9905 O   0  5  0  0  0  0  0  0  0  0  0  0
   23.5745   18.9300   25.5926 O   0  0  0  0  0  0  0  0  0  0  0  0
   21.7321   18.7003   24.1559 C   0  0  0  0  0  0  0  0  0  0  0  0
   21.0321   18.7299   24.9991 H   0  0  0  0  0  0  0  0  0  0  0  0
   21.9681   17.6456   23.9716 H   0  0  0  0  0  0  0  0  0  0  0  0
   21.0637   19.3157   22.8977 C   0  0  0  0  0  0  0  0  0  0  0  0
   20.8356   20.3738   23.0869 H   0  0  0  0  0  0  0  0  0  0  0  0
   21.7724   19.2884   22.0583 H   0  0  0  0  0  0  0  0  0  0  0  0
   19.7702   18.5666   22.5101 C   0  0  0  0  0  0  0  0  0  0  0  0
   19.0634   18.5952   23.3508 H   0  0  0  0  0  0  0  0  0  0  0  0
   20.0008   17.5090   22.3216 H   0  0  0  0  0  0  0  0  0  0  0  0
   19.1071   19.1802   21.2583 C   0  0  0  0  0  0  0  0  0  0  0  0
   18.8764   20.2379   21.4463 H   0  0  0  0  0  0  0  0  0  0  0  0
   19.8136   19.1518   20.4174 H   0  0  0  0  0  0  0  0  0  0  0  0
   17.8144   18.4322   20.8705 C   0  0  0  0  0  0  0  0  0  0  0  0
   17.1043   18.4603   21.7087 H   0  0  0  0  0  0  0  0  0  0  0  0
   18.0416   17.3741   20.6798 H   0  0  0  0  0  0  0  0  0  0  0  0
   17.1553   19.0480   19.6200 C   0  0  0  0  0  0  0  0  0  0  0  0
   16.8885   20.0987   19.7938 H   0  0  0  0  0  0  0  0  0  0  0  0
   16.2381   18.5043   19.3586 H   0  0  0  0  0  0  0  0  0  0  0  0
   17.8327   19.0044   18.7571 H   0  0  0  0  0  0  0  0  0  0  0  0
  1  2  1  0  0  0  0
  1  3  2  0  0  0  0
  1  4  1  0  0  0  0
  4  5  1  0  0  0  0
  4  6  1  0  0  0  0
  4  7  1  0  0  0  0
  7  8  1  0  0  0  0
  7  9  1  0  0  0  0
  7 10  1  0  0  0  0
 10 11  1  0  0  0  0
 10 12  1  0  0  0  0
 10 13  1  0  0  0  0
 13 14  1  0  0  0  0
 13 15  1  0  0  0  0
 13 16  1  0  0  0  0
 16 17  1  0  0  0  0
 16 18  1  0  0  0  0
 16 19  1  0  0  0  0
 19 20  1  0  0  0  0
 19 21  1  0  0  0  0
 19 22  1  0  0  0  0
M  END
> <VConfSearch Rank>
801

> <Conf_Id>
0

> <Delta U+W>
0.000

> <U+W>
-53.159

> <U>
6.763

> <W>
-59.922

> <W(PB)>
-62.256

> <W(SA)>
2.334

> <Valence>
7.600

> <Coulomb>
-2.139

> <VdW>
1.302

> <VdW6>
-6.786

> <VdW12>
8.088

> <Bond>
0.134

> <Angle>
2.720

> <Pdih>
4.746

> <Idih>
0.000

> <Tether>
0.000

$$$$
VeraChem MOL file


 22 21  0  0  0  0  0  0  0  0999 V2000     
   23.2941   20.7028   21.1698 C   0  0  0  0  0  0  0  0  0  0  0  0
   23.2495   21.9145   21.0900 O   0  5  0  0  0  0  0  0  0  0  0  0
   24.0147   20.0089   20.4802 O   0  0  0  0  0  0  0  0  0  0  0  0
   22.3789   20.0135   22.1755 C   0  0  0  0  0  0  0  0  0  0  0  0
   22.2556   20.6806   23.0371 H   0  0  0  0  0  0  0  0  0  0  0  0
   22.8865   19.1102   22.5348 H   0  0  0  0  0  0  0  0  0  0  0  0
   20.9968   19.6488   21.5798 C   0  0  0  0  0  0  0  0  0  0  0  0
   20.5074   20.5618   21.2130 H   0  0  0  0  0  0  0  0  0  0  0  0
   21.1382   18.9914   20.7106 H   0  0  0  0  0  0  0  0  0  0  0  0
   20.0894   18.9525   22.6170 C   0  0  0  0  0  0  0  0  0  0  0  0
   19.9510   19.6118   23.4850 H   0  0  0  0  0  0  0  0  0  0  0  0
   20.5820   18.0410   22.9826 H   0  0  0  0  0  0  0  0  0  0  0  0
   18.7124   18.5902   22.0204 C   0  0  0  0  0  0  0  0  0  0  0  0
   18.2195   19.5014   21.6546 H   0  0  0  0  0  0  0  0  0  0  0  0
   18.8504   17.9310   21.1523 H   0  0  0  0  0  0  0  0  0  0  0  0
   17.8050   17.8943   23.0564 C   0  0  0  0  0  0  0  0  0  0  0  0
   17.6630   18.5516   23.9254 H   0  0  0  0  0  0  0  0  0  0  0  0
   18.2939   16.9811   23.4231 H   0  0  0  0  0  0  0  0  0  0  0  0
   16.4309   17.5341   22.4567 C   0  0  0  0  0  0  0  0  0  0  0  0
   16.5413   16.8513   21.6040 H   0  0  0  0  0  0  0  0  0  0  0  0
   15.9057   18.4337   22.1100 H   0  0  0  0  0  0  0  0  0  0  0  0
   15.7990   17.0405   23.2065 H   0  0  0  0  0  0  0  0  0  0  0  0
  1  2  1  0  0  0  0
  1  3  2  0  0  0  0
  1  4  1  0  0  0  0
  4  5  1  0  0  0  0
  4  6  1  0  0  0  0
  4  7  1  0  0  0  0
  7  8  1  0  0  0  0
  7  9  1  0  0  0  0
  7 10  1  0  0  0  0
 10 11  1  0  0  0  0
 10 12  1  0  0  0  0
 10 13  1  0  0  0  0
 13 14  1  0  0  0  0
 13 15  1  0  0  0  0
 13 16  1  0  0  0  0
 16 17  1  0  0  0  0
 16 18  1  0  0  0  0
 16 19  1  0  0  0  0
 19 20  1  0  0  0  0
 19 21  1  0  0  0  0
 19 22  1  0  0  0  0
M  END
> <VConfSearch Rank>
802

> <Conf_Id>
10

> <Delta U+W>
-1.291

> <U+W>
-54.451

> <U>
5.779

> <W>
-60.230

> <W(PB)>
-62.557

> <W(SA)>
2.328

> <Valence>
7.101

> <Coulomb>
-2.079

> <VdW>
0.757

> <VdW6>
-6.496

> <VdW12>
7.253

> <Bond>
0.100

> <Angle>
2.262

> <Pdih>
4.738

> <Idih>
0.001

> <Tether>
0.000

$$$$
VeraChem MOL file


 22 21  0  0  0  0  0  0  0  0999 V2000     
   19.9060   16.5087   19.1750 C   0  0  0  0  0  0  0  0  0  0  0  0
   18.8136   16.0259   18.9518 O   0  5  0  0  0  0  0  0  0  0  0  0
   20.7601   16.6632   18.3246 O   0  0  0  0  0  0  0  0  0  0  0  0
   20.2146   16.9654   20.5965 C   0  0  0  0  0  0  0  0  0  0  0  0
   21.2879   16.8267   20.7736 H   0  0  0  0  0  0  0  0  0  0  0  0
   19.6832   16.3027   21.2902 H   0  0  0  0  0  0  0  0  0  0  0  0
   19.8164   18.4395   20.8548 C   0  0  0  0  0  0  0  0  0  0  0  0
   20.3466   19.0881   20.1437 H   0  0  0  0  0  0  0  0  0  0  0  0
   18.7420   18.5646   20.6611 H   0  0  0  0  0  0  0  0  0  0  0  0
   20.1388   18.8772   22.3001 C   0  0  0  0  0  0  0  0  0  0  0  0
   21.2136   18.7531   22.4901 H   0  0  0  0  0  0  0  0  0  0  0  0
   19.6102   18.2188   23.0017 H   0  0  0  0  0  0  0  0  0  0  0  0
   19.7361   20.3482   22.5539 C   0  0  0  0  0  0  0  0  0  0  0  0
   20.2176   20.9858   21.7999 H   0  0  0  0  0  0  0  0  0  0  0  0
   18.6527   20.4649   22.4141 H   0  0  0  0  0  0  0  0  0  0  0  0
   20.1346   20.8613   23.9572 C   0  0  0  0  0  0  0  0  0  0  0  0
   19.9217   21.9378   24.0124 H   0  0  0  0  0  0  0  0  0  0  0  0
   21.2188   20.7519   24.0983 H   0  0  0  0  0  0  0  0  0  0  0  0
   19.3869   20.1475   25.1042 C   0  0  0  0  0  0  0  0  0  0  0  0
   19.6372   20.6063   26.0695 H   0  0  0  0  0  0  0  0  0  0  0  0
   19.6592   19.0862   25.1608 H   0  0  0  0  0  0  0  0  0  0  0  0
   18.2998   20.2179   24.9683 H   0  0  0  0  0  0  0  0  0  0  0  0
  1  2  1  0  0  0  0
  1  3  2  0  0  0  0
  1  4  1  0  0  0  0
  4  5  1  0  0  0  0
  4  6  1  0  0  0  0
  4  7  1  0  0  0  0
  7  8  1  0  0  0  0
  7  9  1  0  0  0  0
  7 10  1  0  0  0  0
 10 11  1  0  0  0  0
 10 12  1  0  0  0  0
 10 13  1  0  0  0  0
 13 14  1  0  0  0  0
 13 15  1  0  0  0  0
 13 16  1  0  0  0  0
 16 17  1  0  0  0  0
 16 18  1  0  0  0  0
 16 19  1  0  0  0  0
 19 20  1  0  0  0  0
 19 21  1  0  0  0  0
 19 22  1  0  0  0  0
M  END
> <VConfSearch Rank>
803

> <Conf_Id>
37

> <Delta U+W>
-0.345

> <U+W>
-53.504

> <U>
6.751

> <W>
-60.255

> <W(PB)>
-62.592

> <W(SA)>
2.336

> <Valence>
7.602

> <Coulomb>
-1.744

> <VdW>
0.894

> <VdW6>
-7.110

> <VdW12>
8.004

> <Bond>
0.131

> <Angle>
2.489

> <Pdih>
4.982

> <Idih>
0.001

> <Tether>
0.000

$$$$
VeraChem MOL file


 22 21  0  0  0  0  0  0  0  0999 V2000     
   21.8955   18.8991   18.9367 C   0  0  0  0  0  0  0  0  0  0  0  0
   22.6722   17.9652   18.9066 O   0  5  0  0  0  0  0  0  0  0  0  0
   22.0717   19.9407   18.3362 O   0  0  0  0  0  0  0  0  0  0  0  0
   20.6410   18.7649   19.7925 C   0  0  0  0  0  0  0  0  0  0  0  0
   20.3343   17.7120   19.7847 H   0  0  0  0  0  0  0  0  0  0  0  0
   19.8389   19.3397   19.3141 H   0  0  0  0  0  0  0  0  0  0  0  0
   20.8508   19.2496   21.2482 C   0  0  0  0  0  0  0  0  0  0  0  0
   21.6649   18.6730   21.7090 H   0  0  0  0  0  0  0  0  0  0  0  0
   21.1705   20.3009   21.2377 H   0  0  0  0  0  0  0  0  0  0  0  0
   19.5668   19.1036   22.0935 C   0  0  0  0  0  0  0  0  0  0  0  0
   19.2524   18.0517   22.0913 H   0  0  0  0  0  0  0  0  0  0  0  0
   18.7555   19.6827   21.6317 H   0  0  0  0  0  0  0  0  0  0  0  0
   19.7826   19.5851   23.5467 C   0  0  0  0  0  0  0  0  0  0  0  0
   20.5584   18.9740   24.0279 H   0  0  0  0  0  0  0  0  0  0  0  0
   20.1644   20.6151   23.5289 H   0  0  0  0  0  0  0  0  0  0  0  0
   18.4949   19.5537   24.4024 C   0  0  0  0  0  0  0  0  0  0  0  0
   17.7185   20.1692   23.9273 H   0  0  0  0  0  0  0  0  0  0  0  0
   18.7069   20.0183   25.3753 H   0  0  0  0  0  0  0  0  0  0  0  0
   17.9537   18.1273   24.6403 C   0  0  0  0  0  0  0  0  0  0  0  0
   18.7231   17.4846   25.0876 H   0  0  0  0  0  0  0  0  0  0  0  0
   17.6193   17.6641   23.7037 H   0  0  0  0  0  0  0  0  0  0  0  0
   17.0949   18.1518   25.3236 H   0  0  0  0  0  0  0  0  0  0  0  0
  1  2  1  0  0  0  0
  1  3  2  0  0  0  0
  1  4  1  0  0  0  0
  4  5  1  0  0  0  0
  4  6  1  0  0  0  0
  4  7  1  0  0  0  0
  7  8  1  0  0  0  0
  7  9  1  0  0  0  0
  7 10  1  0  0  0  0
 10 11  1  0  0  0  0
 10 12  1  0  0  0  0
 10 13  1  0  0  0  0
 13 14  1  0  0  0  0
 13 15  1  0  0  0  0
 13 16  1  0  0  0  0
 16 17  1  0  0  0  0
 16 18  1  0  0  0  0
 16 19  1  0  0  0  0
 19 20  1  0  0  0  0
 19 21  1  0  0  0  0
 19 22  1  0  0  0  0
M  END
> <VConfSearch Rank>
804

> <Conf_Id>
38

> <Delta U+W>
-0.439

> <U+W>
-53.598

> <U>
6.751

> <W>
-60.350

> <W(PB)>
-62.659

> <W(SA)>
2.309

> <Valence>
7.602

> <Coulomb>
-1.744

> <VdW>
0.893

> <VdW6>
-7.110

> <VdW12>
8.004

> <Bond>
0.131

> <Angle>
2.489

> <Pdih>
4.981

> <Idih>
0.001

> <Tether>
0.000

$$$$
VeraChem MOL file


 22 21  0  0  0  0  0  0  0  0999 V2000     
   17.6976   17.4704   24.8934 C   0  0  0  0  0  0  0  0  0  0  0  0
   18.1366   16.9183   25.8829 O   0  5  0  0  0  0  0  0  0  0  0  0
   16.5769   17.2858   24.4616 O   0  0  0  0  0  0  0  0  0  0  0  0
   18.6111   18.4302   24.1395 C   0  0  0  0  0  0  0  0  0  0  0  0
   19.2795   18.9056   24.8672 H   0  0  0  0  0  0  0  0  0  0  0  0
   17.9831   19.2188   23.7104 H   0  0  0  0  0  0  0  0  0  0  0  0
   19.4390   17.7256   23.0333 C   0  0  0  0  0  0  0  0  0  0  0  0
   19.9790   16.8811   23.4834 H   0  0  0  0  0  0  0  0  0  0  0  0
   18.7603   17.2951   22.2840 H   0  0  0  0  0  0  0  0  0  0  0  0
   20.4642   18.6536   22.3386 C   0  0  0  0  0  0  0  0  0  0  0  0
   21.0905   18.0362   21.6823 H   0  0  0  0  0  0  0  0  0  0  0  0
   21.1357   19.0887   23.0912 H   0  0  0  0  0  0  0  0  0  0  0  0
   19.8073   19.7837   21.5083 C   0  0  0  0  0  0  0  0  0  0  0  0
   19.1345   19.3484   20.7569 H   0  0  0  0  0  0  0  0  0  0  0  0
   19.1831   20.4037   22.1639 H   0  0  0  0  0  0  0  0  0  0  0  0
   20.8323   20.7082   20.8106 C   0  0  0  0  0  0  0  0  0  0  0  0
   21.5146   21.1367   21.5577 H   0  0  0  0  0  0  0  0  0  0  0  0
   20.2937   21.5542   20.3618 H   0  0  0  0  0  0  0  0  0  0  0  0
   21.6475   19.9996   19.7071 C   0  0  0  0  0  0  0  0  0  0  0  0
   22.2984   19.2217   20.1250 H   0  0  0  0  0  0  0  0  0  0  0  0
   22.2876   20.7197   19.1811 H   0  0  0  0  0  0  0  0  0  0  0  0
   20.9844   19.5335   18.9666 H   0  0  0  0  0  0  0  0  0  0  0  0
  1  2  1  0  0  0  0
  1  3  2  0  0  0  0
  1  4  1  0  0  0  0
  4  5  1  0  0  0  0
  4  6  1  0  0  0  0
  4  7  1  0  0  0  0
  7  8  1  0  0  0  0
  7  9  1  0  0  0  0
  7 10  1  0  0  0  0
 10 11  1  0  0  0  0
 10 12  1  0  0  0  0
 10 13  1  0  0  0  0
 13 14  1  0  0  0  0
 13 15  1  0  0  0  0
 13 16  1  0  0  0  0
 16 17  1  0  0  0  0
 16 18  1  0  0  0  0
 16 19  1  0  0  0  0
 19 20  1  0  0  0  0
 19 21  1  0  0  0  0
 19 22  1  0  0  0  0
M  END
> <VConfSearch Rank>
805

> <Conf_Id>
60

> <Delta U+W>
0.386

> <U+W>
-52.773

> <U>
7.689

> <W>
-60.463

> <W(PB)>
-62.772

> <W(SA)>
2.309

> <Valence>
8.197

> <Coulomb>
-1.561

> <VdW>
1.053

> <VdW6>
-7.737

> <VdW12>
8.790

> <Bond>
0.181

> <Angle>
2.780

> <Pdih>
5.235

> <Idih>
0.001

> <Tether>
0.000

$$$$
VeraChem MOL file


 22 21  0  0  0  0  0  0  0  0999 V2000     
   22.5650   16.3843   21.6624 C   0  0  0  0  0  0  0  0  0  0  0  0
   23.3027   16.7534   20.7701 O   0  5  0  0  0  0  0  0  0  0  0  0
   22.4984   15.2337   22.0475 O   0  0  0  0  0  0  0  0  0  0  0  0
   21.6567   17.4173   22.3198 C   0  0  0  0  0  0  0  0  0  0  0  0
   22.1897   18.3746   22.3229 H   0  0  0  0  0  0  0  0  0  0  0  0
   21.5086   17.1232   23.3657 H   0  0  0  0  0  0  0  0  0  0  0  0
   20.2878   17.5541   21.6035 C   0  0  0  0  0  0  0  0  0  0  0  0
   20.4455   17.8963   20.5714 H   0  0  0  0  0  0  0  0  0  0  0  0
   19.8277   16.5587   21.5329 H   0  0  0  0  0  0  0  0  0  0  0  0
   19.3017   18.5039   22.3247 C   0  0  0  0  0  0  0  0  0  0  0  0
   19.1527   18.1637   23.3585 H   0  0  0  0  0  0  0  0  0  0  0  0
   18.3271   18.4230   21.8268 H   0  0  0  0  0  0  0  0  0  0  0  0
   19.7591   19.9834   22.3220 C   0  0  0  0  0  0  0  0  0  0  0  0
   20.7321   20.0662   22.8225 H   0  0  0  0  0  0  0  0  0  0  0  0
   19.9099   20.3228   21.2882 H   0  0  0  0  0  0  0  0  0  0  0  0
   18.7710   20.9329   23.0390 C   0  0  0  0  0  0  0  0  0  0  0  0
   19.2308   21.9282   23.1122 H   0  0  0  0  0  0  0  0  0  0  0  0
   18.6086   20.5901   24.0702 H   0  0  0  0  0  0  0  0  0  0  0  0
   17.4136   21.0675   22.3152 C   0  0  0  0  0  0  0  0  0  0  0  0
   17.5538   21.3763   21.2711 H   0  0  0  0  0  0  0  0  0  0  0  0
   16.7888   21.8226   22.8096 H   0  0  0  0  0  0  0  0  0  0  0  0
   16.8582   20.1215   22.3235 H   0  0  0  0  0  0  0  0  0  0  0  0
  1  2  1  0  0  0  0
  1  3  2  0  0  0  0
  1  4  1  0  0  0  0
  4  5  1  0  0  0  0
  4  6  1  0  0  0  0
  4  7  1  0  0  0  0
  7  8  1  0  0  0  0
  7  9  1  0  0  0  0
  7 10  1  0  0  0  0
 10 11  1  0  0  0  0
 10 12  1  0  0  0  0
 10 13  1  0  0  0  0
 13 14  1  0  0  0  0
 13 15  1  0  0  0  0
 13 16  1  0  0  0  0
 16 17  1  0  0  0  0
 16 18  1  0  0  0  0
 16 19  1  0  0  0  0
 19 20  1  0  0  0  0
 19 21  1  0  0  0  0
 19 22  1  0  0  0  0
M  END
> <VConfSearch Rank>
806

> <Conf_Id>
28

> <Delta U+W>
0.351

> <U+W>
-52.808

> <U>
7.689

> <W>
-60.498

> <W(PB)>
-62.768

> <W(SA)>
2.270

> <Valence>
8.197

> <Coulomb>
-1.561

> <VdW>
1.053

> <VdW6>
-7.737

> <VdW12>
8.791

> <Bond>
0.181

> <Angle>
2.780

> <Pdih>
5.235

> <Idih>
0.001

> <Tether>
0.000

$$$$
VeraChem MOL file


 22 21  0  0  0  0  0  0  0  0999 V2000     
   17.6034   18.9597   25.2018 C   0  0  0  0  0  0  0  0  0  0  0  0
   17.2010   20.0491   25.5593 O   0  5  0  0  0  0  0  0  0  0  0  0
   16.9008   17.9704   25.1384 O   0  0  0  0  0  0  0  0  0  0  0  0
   19.0659   18.8317   24.7909 C   0  0  0  0  0  0  0  0  0  0  0  0
   19.4047   17.8207   25.0473 H   0  0  0  0  0  0  0  0  0  0  0  0
   19.6523   19.5335   25.3962 H   0  0  0  0  0  0  0  0  0  0  0  0
   19.2936   19.1049   23.2837 C   0  0  0  0  0  0  0  0  0  0  0  0
   18.6817   18.4045   22.7001 H   0  0  0  0  0  0  0  0  0  0  0  0
   18.9413   20.1171   23.0413 H   0  0  0  0  0  0  0  0  0  0  0  0
   20.7833   18.9637   22.8941 C   0  0  0  0  0  0  0  0  0  0  0  0
   21.1213   17.9364   23.0873 H   0  0  0  0  0  0  0  0  0  0  0  0
   21.3849   19.6159   23.5418 H   0  0  0  0  0  0  0  0  0  0  0  0
   21.0728   19.3354   21.4204 C   0  0  0  0  0  0  0  0  0  0  0  0
   20.7386   20.3641   21.2279 H   0  0  0  0  0  0  0  0  0  0  0  0
   22.1607   19.3286   21.2672 H   0  0  0  0  0  0  0  0  0  0  0  0
   20.4173   18.3754   20.4021 C   0  0  0  0  0  0  0  0  0  0  0  0
   19.3236   18.4250   20.4850 H   0  0  0  0  0  0  0  0  0  0  0  0
   20.7096   17.3405   20.6271 H   0  0  0  0  0  0  0  0  0  0  0  0
   20.8264   18.7201   18.9559 C   0  0  0  0  0  0  0  0  0  0  0  0
   21.9138   18.6430   18.8258 H   0  0  0  0  0  0  0  0  0  0  0  0
   20.5212   19.7419   18.6948 H   0  0  0  0  0  0  0  0  0  0  0  0
   20.3506   18.0322   18.2450 H   0  0  0  0  0  0  0  0  0  0  0  0
  1  2  1  0  0  0  0
  1  3  2  0  0  0  0
  1  4  1  0  0  0  0
  4  5  1  0  0  0  0
  4  6  1  0  0  0  0
  4  7  1  0  0  0  0
  7  8  1  0  0  0  0
  7  9  1  0  0  0  0
  7 10  1  0  0  0  0
 10 11  1  0  0  0  0
 10 12  1  0  0  0  0
 10 13  1  0  0  0  0
 13 14  1  0  0  0  0
 13 15  1  0  0  0  0
 13 16  1  0  0  0  0
 16 17  1  0  0  0  0
 16 18  1  0  0  0  0
 16 19  1  0  0  0  0
 19 20  1  0  0  0  0
 19 21  1  0  0  0  0
 19 22  1  0  0  0  0
M  END
> <VConfSearch Rank>
807

> <Conf_Id>
50

> <Delta U+W>
-0.486

> <U+W>
-53.646

> <U>
7.026

> <W>
-60.672

> <W(PB)>
-62.964

> <W(SA)>
2.292

> <Valence>
7.637

> <Coulomb>
-1.488

> <VdW>
0.877

> <VdW6>
-7.165

> <VdW12>
8.043

> <Bond>
0.134

> <Angle>
2.513

> <Pdih>
4.990

> <Idih>
0.001

> <Tether>
0.000

$$$$
VeraChem MOL file


 22 21  0  0  0  0  0  0  0  0999 V2000     
   23.4257   19.4591   21.8228 C   0  0  0  0  0  0  0  0  0  0  0  0
   24.0866   19.5941   22.8335 O   0  5  0  0  0  0  0  0  0  0  0  0
   23.5991   20.1122   20.8130 O   0  0  0  0  0  0  0  0  0  0  0  0
   22.3035   18.4272   21.8291 C   0  0  0  0  0  0  0  0  0  0  0  0
   22.6077   17.5972   22.4781 H   0  0  0  0  0  0  0  0  0  0  0  0
   22.2044   18.0253   20.8135 H   0  0  0  0  0  0  0  0  0  0  0  0
   20.9511   19.0119   22.3062 C   0  0  0  0  0  0  0  0  0  0  0  0
   21.0693   19.4181   23.3203 H   0  0  0  0  0  0  0  0  0  0  0  0
   20.6785   19.8522   21.6542 H   0  0  0  0  0  0  0  0  0  0  0  0
   19.8310   17.9460   22.2983 C   0  0  0  0  0  0  0  0  0  0  0  0
   20.1563   17.0820   22.8938 H   0  0  0  0  0  0  0  0  0  0  0  0
   19.6767   17.5777   21.2748 H   0  0  0  0  0  0  0  0  0  0  0  0
   18.4886   18.4584   22.8719 C   0  0  0  0  0  0  0  0  0  0  0  0
   17.7948   17.6097   22.9448 H   0  0  0  0  0  0  0  0  0  0  0  0
   18.6416   18.8231   23.8969 H   0  0  0  0  0  0  0  0  0  0  0  0
   17.8357   19.5674   22.0164 C   0  0  0  0  0  0  0  0  0  0  0  0
   17.7309   19.2217   20.9787 H   0  0  0  0  0  0  0  0  0  0  0  0
   18.4789   20.4569   21.9947 H   0  0  0  0  0  0  0  0  0  0  0  0
   16.4507   19.9639   22.5663 C   0  0  0  0  0  0  0  0  0  0  0  0
   16.5298   20.3397   23.5948 H   0  0  0  0  0  0  0  0  0  0  0  0
   15.7669   19.1050   22.5664 H   0  0  0  0  0  0  0  0  0  0  0  0
   16.0018   20.7540   21.9504 H   0  0  0  0  0  0  0  0  0  0  0  0
  1  2  1  0  0  0  0
  1  3  2  0  0  0  0
  1  4  1  0  0  0  0
  4  5  1  0  0  0  0
  4  6  1  0  0  0  0
  4  7  1  0  0  0  0
  7  8  1  0  0  0  0
  7  9  1  0  0  0  0
  7 10  1  0  0  0  0
 10 11  1  0  0  0  0
 10 12  1  0  0  0  0
 10 13  1  0  0  0  0
 13 14  1  0  0  0  0
 13 15  1  0  0  0  0
 13 16  1  0  0  0  0
 16 17  1  0  0  0  0
 16 18  1  0  0  0  0
 16 19  1  0  0  0  0
 19 20  1  0  0  0  0
 19 21  1  0  0  0  0
 19 22  1  0  0  0  0
M  END
> <VConfSearch Rank>
808

> <Conf_Id>
51

> <Delta U+W>
-0.517

> <U+W>
-53.677

> <U>
7.026

> <W>
-60.703

> <W(PB)>
-63.007

> <W(SA)>
2.304

> <Valence>
7.638

> <Coulomb>
-1.488

> <VdW>
0.877

> <VdW6>
-7.165

> <VdW12>
8.042

> <Bond>
0.134

> <Angle>
2.513

> <Pdih>
4.990

> <Idih>
0.001

> <Tether>
0.000

$$$$
VeraChem MOL file


 22 21  0  0  0  0  0  0  0  0999 V2000     
   22.3882   16.4144   21.9257 C   0  0  0  0  0  0  0  0  0  0  0  0
   22.9805   16.5064   20.8685 O   0  5  0  0  0  0  0  0  0  0  0  0
   22.9298   16.5042   23.0099 O   0  0  0  0  0  0  0  0  0  0  0  0
   20.8851   16.1528   21.8873 C   0  0  0  0  0  0  0  0  0  0  0  0
   20.5728   15.7610   22.8628 H   0  0  0  0  0  0  0  0  0  0  0  0
   20.7095   15.3565   21.1544 H   0  0  0  0  0  0  0  0  0  0  0  0
   20.0378   17.3967   21.5135 C   0  0  0  0  0  0  0  0  0  0  0  0
   20.3809   17.7942   20.5482 H   0  0  0  0  0  0  0  0  0  0  0  0
   18.9929   17.0876   21.3747 H   0  0  0  0  0  0  0  0  0  0  0  0
   20.1027   18.5048   22.5886 C   0  0  0  0  0  0  0  0  0  0  0  0
   21.1434   18.8315   22.7209 H   0  0  0  0  0  0  0  0  0  0  0  0
   19.7712   18.0990   23.5542 H   0  0  0  0  0  0  0  0  0  0  0  0
   19.2278   19.7195   22.2111 C   0  0  0  0  0  0  0  0  0  0  0  0
   19.5599   20.1247   21.2454 H   0  0  0  0  0  0  0  0  0  0  0  0
   18.1860   19.3958   22.0810 H   0  0  0  0  0  0  0  0  0  0  0  0
   19.2927   20.8267   23.2839 C   0  0  0  0  0  0  0  0  0  0  0  0
   20.3333   21.1544   23.4155 H   0  0  0  0  0  0  0  0  0  0  0  0
   18.9596   20.4255   24.2511 H   0  0  0  0  0  0  0  0  0  0  0  0
   18.4183   22.0383   22.9033 C   0  0  0  0  0  0  0  0  0  0  0  0
   18.7499   22.4793   21.9541 H   0  0  0  0  0  0  0  0  0  0  0  0
   18.4763   22.8154   23.6765 H   0  0  0  0  0  0  0  0  0  0  0  0
   17.3658   21.7449   22.7959 H   0  0  0  0  0  0  0  0  0  0  0  0
  1  2  1  0  0  0  0
  1  3  2  0  0  0  0
  1  4  1  0  0  0  0
  4  5  1  0  0  0  0
  4  6  1  0  0  0  0
  4  7  1  0  0  0  0
  7  8  1  0  0  0  0
  7  9  1  0  0  0  0
  7 10  1  0  0  0  0
 10 11  1  0  0  0  0
 10 12  1  0  0  0  0
 10 13  1  0  0  0  0
 13 14  1  0  0  0  0
 13 15  1  0  0  0  0
 13 16  1  0  0  0  0
 16 17  1  0  0  0  0
 16 18  1  0  0  0  0
 16 19  1  0  0  0  0
 19 20  1  0  0  0  0
 19 21  1  0  0  0  0
 19 22  1  0  0  0  0
M  END
> <VConfSearch Rank>
809

> <Conf_Id>
43

> <Delta U+W>
-0.129

> <U+W>
-53.289

> <U>
7.937

> <W>
-61.225

> <W(PB)>
-63.523

> <W(SA)>
2.297

> <Valence>
7.358

> <Coulomb>
-0.022

> <VdW>
0.601

> <VdW6>
-7.363

> <VdW12>
7.964

> <Bond>
0.121

> <Angle>
2.425

> <Pdih>
4.811

> <Idih>
0.000

> <Tether>
0.000

$$$$
VeraChem MOL file


 22 21  0  0  0  0  0  0  0  0999 V2000     
   22.7315   18.3783   23.8802 C   0  0  0  0  0  0  0  0  0  0  0  0
   22.6528   17.5025   24.7190 O   0  5  0  0  0  0  0  0  0  0  0  0
   23.0722   19.5181   24.1282 O   0  0  0  0  0  0  0  0  0  0  0  0
   22.4018   18.0202   22.4337 C   0  0  0  0  0  0  0  0  0  0  0  0
   22.9084   17.0748   22.2063 H   0  0  0  0  0  0  0  0  0  0  0  0
   22.8395   18.7810   21.7761 H   0  0  0  0  0  0  0  0  0  0  0  0
   20.8841   17.8759   22.1499 C   0  0  0  0  0  0  0  0  0  0  0  0
   20.7473   17.4853   21.1324 H   0  0  0  0  0  0  0  0  0  0  0  0
   20.4549   17.1314   22.8348 H   0  0  0  0  0  0  0  0  0  0  0  0
   20.1238   19.2140   22.2883 C   0  0  0  0  0  0  0  0  0  0  0  0
   20.5649   19.9584   21.6114 H   0  0  0  0  0  0  0  0  0  0  0  0
   20.2417   19.6027   23.3093 H   0  0  0  0  0  0  0  0  0  0  0  0
   18.6215   19.0534   21.9709 C   0  0  0  0  0  0  0  0  0  0  0  0
   18.5008   18.6675   20.9494 H   0  0  0  0  0  0  0  0  0  0  0  0
   18.1811   18.3089   22.6483 H   0  0  0  0  0  0  0  0  0  0  0  0
   17.8614   20.3891   22.1097 C   0  0  0  0  0  0  0  0  0  0  0  0
   18.2981   21.1360   21.4323 H   0  0  0  0  0  0  0  0  0  0  0  0
   17.9783   20.7774   23.1310 H   0  0  0  0  0  0  0  0  0  0  0  0
   16.3615   20.2248   21.7927 C   0  0  0  0  0  0  0  0  0  0  0  0
   16.2141   19.8671   20.7652 H   0  0  0  0  0  0  0  0  0  0  0  0
   15.8369   21.1835   21.8963 H   0  0  0  0  0  0  0  0  0  0  0  0
   15.8919   19.5058   22.4768 H   0  0  0  0  0  0  0  0  0  0  0  0
  1  2  1  0  0  0  0
  1  3  2  0  0  0  0
  1  4  1  0  0  0  0
  4  5  1  0  0  0  0
  4  6  1  0  0  0  0
  4  7  1  0  0  0  0
  7  8  1  0  0  0  0
  7  9  1  0  0  0  0
  7 10  1  0  0  0  0
 10 11  1  0  0  0  0
 10 12  1  0  0  0  0
 10 13  1  0  0  0  0
 13 14  1  0  0  0  0
 13 15  1  0  0  0  0
 13 16  1  0  0  0  0
 16 17  1  0  0  0  0
 16 18  1  0  0  0  0
 16 19  1  0  0  0  0
 19 20  1  0  0  0  0
 19 21  1  0  0  0  0
 19 22  1  0  0  0  0
M  END
> <VConfSearch Rank>
810

> <Conf_Id>
44

> <Delta U+W>
-0.155

> <U+W>
-53.314

> <U>
7.937

> <W>
-61.252

> <W(PB)>
-63.556

> <W(SA)>
2.304

> <Valence>
7.358

> <Coulomb>
-0.021

> <VdW>
0.600

> <VdW6>
-7.363

> <VdW12>
7.964

> <Bond>
0.121

> <Angle>
2.425

> <Pdih>
4.811

> <Idih>
0.001

> <Tether>
0.000

$$$$
VeraChem MOL file


 22 21  0  0  0  0  0  0  0  0999 V2000     
   20.1238   20.7239   25.3855 C   0  0  0  0  0  0  0  0  0  0  0  0
   20.7212   21.7727   25.2438 O   0  5  0  0  0  0  0  0  0  0  0  0
   20.4120   19.8943   26.2254 O   0  0  0  0  0  0  0  0  0  0  0  0
   18.9350   20.4441   24.4701 C   0  0  0  0  0  0  0  0  0  0  0  0
   18.3259   21.3551   24.4376 H   0  0  0  0  0  0  0  0  0  0  0  0
   18.3152   19.6641   24.9287 H   0  0  0  0  0  0  0  0  0  0  0  0
   19.3302   20.0343   23.0273 C   0  0  0  0  0  0  0  0  0  0  0  0
   18.4216   20.0079   22.4126 H   0  0  0  0  0  0  0  0  0  0  0  0
   19.9832   20.8057   22.5960 H   0  0  0  0  0  0  0  0  0  0  0  0
   20.0367   18.6584   22.9733 C   0  0  0  0  0  0  0  0  0  0  0  0
   19.3663   17.8818   23.3659 H   0  0  0  0  0  0  0  0  0  0  0  0
   20.9115   18.6761   23.6377 H   0  0  0  0  0  0  0  0  0  0  0  0
   20.5120   18.2645   21.5546 C   0  0  0  0  0  0  0  0  0  0  0  0
   21.1822   19.0416   21.1622 H   0  0  0  0  0  0  0  0  0  0  0  0
   21.1118   17.3473   21.6314 H   0  0  0  0  0  0  0  0  0  0  0  0
   19.3542   18.0236   20.5597 C   0  0  0  0  0  0  0  0  0  0  0  0
   18.7881   18.9514   20.4053 H   0  0  0  0  0  0  0  0  0  0  0  0
   18.6546   17.2861   20.9767 H   0  0  0  0  0  0  0  0  0  0  0  0
   19.8747   17.5221   19.1975 C   0  0  0  0  0  0  0  0  0  0  0  0
   20.5566   18.2536   18.7446 H   0  0  0  0  0  0  0  0  0  0  0  0
   19.0416   17.3589   18.5015 H   0  0  0  0  0  0  0  0  0  0  0  0
   20.4145   16.5725   19.3081 H   0  0  0  0  0  0  0  0  0  0  0  0
  1  2  1  0  0  0  0
  1  3  2  0  0  0  0
  1  4  1  0  0  0  0
  4  5  1  0  0  0  0
  4  6  1  0  0  0  0
  4  7  1  0  0  0  0
  7  8  1  0  0  0  0
  7  9  1  0  0  0  0
  7 10  1  0  0  0  0
 10 11  1  0  0  0  0
 10 12  1  0  0  0  0
 10 13  1  0  0  0  0
 13 14  1  0  0  0  0
 13 15  1  0  0  0  0
 13 16  1  0  0  0  0
 16 17  1  0  0  0  0
 16 18  1  0  0  0  0
 16 19  1  0  0  0  0
 19 20  1  0  0  0  0
 19 21  1  0  0  0  0
 19 22  1  0  0  0  0
M  END
> <VConfSearch Rank>
811

> <Conf_Id>
53

> <Delta U+W>
0.723

> <U+W>
-52.436

> <U>
8.587

> <W>
-61.022

> <W(PB)>
-63.285

> <W(SA)>
2.263

> <Valence>
7.933

> <Coulomb>
-0.124

> <VdW>
0.778

> <VdW6>
-7.981

> <VdW12>
8.759

> <Bond>
0.160

> <Angle>
2.698

> <Pdih>
5.074

> <Idih>
0.001

> <Tether>
0.000

$$$$
VeraChem MOL file


 22 21  0  0  0  0  0  0  0  0999 V2000     
   16.7640   20.2089   21.5020 C   0  0  0  0  0  0  0  0  0  0  0  0
   16.8797   20.8799   20.4956 O   0  5  0  0  0  0  0  0  0  0  0  0
   15.6981   19.9786   22.0381 O   0  0  0  0  0  0  0  0  0  0  0  0
   18.0228   19.6040   22.1133 C   0  0  0  0  0  0  0  0  0  0  0  0
   17.8740   19.5302   23.1972 H   0  0  0  0  0  0  0  0  0  0  0  0
   18.8457   20.3062   21.9394 H   0  0  0  0  0  0  0  0  0  0  0  0
   18.3679   18.2133   21.5234 C   0  0  0  0  0  0  0  0  0  0  0  0
   17.4775   17.5726   21.5885 H   0  0  0  0  0  0  0  0  0  0  0  0
   18.5917   18.3204   20.4531 H   0  0  0  0  0  0  0  0  0  0  0  0
   19.5437   17.4934   22.2304 C   0  0  0  0  0  0  0  0  0  0  0  0
   19.6594   16.5079   21.7588 H   0  0  0  0  0  0  0  0  0  0  0  0
   19.2877   17.2934   23.2799 H   0  0  0  0  0  0  0  0  0  0  0  0
   20.9022   18.2338   22.1401 C   0  0  0  0  0  0  0  0  0  0  0  0
   21.7000   17.4857   22.0360 H   0  0  0  0  0  0  0  0  0  0  0  0
   20.9380   18.8471   21.2293 H   0  0  0  0  0  0  0  0  0  0  0  0
   21.2133   19.0978   23.3841 C   0  0  0  0  0  0  0  0  0  0  0  0
   21.2307   18.4605   24.2790 H   0  0  0  0  0  0  0  0  0  0  0  0
   20.4245   19.8424   23.5445 H   0  0  0  0  0  0  0  0  0  0  0  0
   22.5694   19.8186   23.2468 C   0  0  0  0  0  0  0  0  0  0  0  0
   23.3878   19.0969   23.1253 H   0  0  0  0  0  0  0  0  0  0  0  0
   22.7791   20.4216   24.1398 H   0  0  0  0  0  0  0  0  0  0  0  0
   22.5710   20.4888   22.3772 H   0  0  0  0  0  0  0  0  0  0  0  0
  1  2  1  0  0  0  0
  1  3  2  0  0  0  0
  1  4  1  0  0  0  0
  4  5  1  0  0  0  0
  4  6  1  0  0  0  0
  4  7  1  0  0  0  0
  7  8  1  0  0  0  0
  7  9  1  0  0  0  0
  7 10  1  0  0  0  0
 10 11  1  0  0  0  0
 10 12  1  0  0  0  0
 10 13  1  0  0  0  0
 13 14  1  0  0  0  0
 13 15  1  0  0  0  0
 13 16  1  0  0  0  0
 16 17  1  0  0  0  0
 16 18  1  0  0  0  0
 16 19  1  0  0  0  0
 19 20  1  0  0  0  0
 19 21  1  0  0  0  0
 19 22  1  0  0  0  0
M  END
> <VConfSearch Rank>
812

> <Conf_Id>
5

> <Delta U+W>
2.167

> <U+W>
-50.993

> <U>
10.045

> <W>
-61.037

> <W(PB)>
-63.303

> <W(SA)>
2.266

> <Valence>
10.100

> <Coulomb>
-0.883

> <VdW>
0.828

> <VdW6>
-8.177

> <VdW12>
9.005

> <Bond>
0.182

> <Angle>
2.988

> <Pdih>
6.930

> <Idih>
0.001

> <Tether>
0.000

$$$$
VeraChem MOL file


 22 21  0  0  0  0  0  0  0  0999 V2000     
   18.7675   21.4369   20.4677 C   0  0  0  0  0  0  0  0  0  0  0  0
   17.7475   21.8788   20.9584 O   0  5  0  0  0  0  0  0  0  0  0  0
   19.2330   21.8295   19.4161 O   0  0  0  0  0  0  0  0  0  0  0  0
   19.4910   20.3125   21.1999 C   0  0  0  0  0  0  0  0  0  0  0  0
   19.3510   20.4734   22.2747 H   0  0  0  0  0  0  0  0  0  0  0  0
   20.5632   20.4024   20.9886 H   0  0  0  0  0  0  0  0  0  0  0  0
   18.9805   18.9066   20.7949 C   0  0  0  0  0  0  0  0  0  0  0  0
   17.9260   18.8072   21.0870 H   0  0  0  0  0  0  0  0  0  0  0  0
   19.0048   18.8255   19.6994 H   0  0  0  0  0  0  0  0  0  0  0  0
   19.7977   17.7336   21.3925 C   0  0  0  0  0  0  0  0  0  0  0  0
   20.8326   17.7690   21.0254 H   0  0  0  0  0  0  0  0  0  0  0  0
   19.3732   16.8003   20.9979 H   0  0  0  0  0  0  0  0  0  0  0  0
   19.7786   17.6558   22.9402 C   0  0  0  0  0  0  0  0  0  0  0  0
   18.8504   18.0965   23.3289 H   0  0  0  0  0  0  0  0  0  0  0  0
   19.7611   16.5976   23.2352 H   0  0  0  0  0  0  0  0  0  0  0  0
   21.0084   18.3187   23.6026 C   0  0  0  0  0  0  0  0  0  0  0  0
   21.0829   19.3731   23.3110 H   0  0  0  0  0  0  0  0  0  0  0  0
   21.9256   17.8289   23.2474 H   0  0  0  0  0  0  0  0  0  0  0  0
   20.9431   18.2221   25.1400 C   0  0  0  0  0  0  0  0  0  0  0  0
   20.0513   18.7321   25.5274 H   0  0  0  0  0  0  0  0  0  0  0  0
   21.8256   18.6903   25.5949 H   0  0  0  0  0  0  0  0  0  0  0  0
   20.9085   17.1747   25.4671 H   0  0  0  0  0  0  0  0  0  0  0  0
  1  2  1  0  0  0  0
  1  3  2  0  0  0  0
  1  4  1  0  0  0  0
  4  5  1  0  0  0  0
  4  6  1  0  0  0  0
  4  7  1  0  0  0  0
  7  8  1  0  0  0  0
  7  9  1  0  0  0  0
  7 10  1  0  0  0  0
 10 11  1  0  0  0  0
 10 12  1  0  0  0  0
 10 13  1  0  0  0  0
 13 14  1  0  0  0  0
 13 15  1  0  0  0  0
 13 16  1  0  0  0  0
 16 17  1  0  0  0  0
 16 18  1  0  0  0  0
 16 19  1  0  0  0  0
 19 20  1  0  0  0  0
 19 21  1  0  0  0  0
 19 22  1  0  0  0  0
M  END
> <VConfSearch Rank>
813

> <Conf_Id>
6

> <Delta U+W>
2.118

> <U+W>
-51.042

> <U>
10.045

> <W>
-61.086

> <W(PB)>
-63.356

> <W(SA)>
2.270

> <Valence>
10.100

> <Coulomb>
-0.883

> <VdW>
0.828

> <VdW6>
-8.177

> <VdW12>
9.004

> <Bond>
0.182

> <Angle>
2.988

> <Pdih>
6.930

> <Idih>
0.001

> <Tether>
0.000

$$$$
VeraChem MOL file


 22 21  0  0  0  0  0  0  0  0999 V2000     
   19.3792   16.3848   21.8617 C   0  0  0  0  0  0  0  0  0  0  0  0
   19.1601   15.7532   22.8769 O   0  5  0  0  0  0  0  0  0  0  0  0
   20.4223   16.3165   21.2418 O   0  0  0  0  0  0  0  0  0  0  0  0
   18.2605   17.2569   21.2946 C   0  0  0  0  0  0  0  0  0  0  0  0
   17.4418   16.5764   21.0334 H   0  0  0  0  0  0  0  0  0  0  0  0
   18.6027   17.7105   20.3565 H   0  0  0  0  0  0  0  0  0  0  0  0
   17.7201   18.3521   22.2566 C   0  0  0  0  0  0  0  0  0  0  0  0
   16.7219   18.6480   21.9067 H   0  0  0  0  0  0  0  0  0  0  0  0
   17.5753   17.9303   23.2609 H   0  0  0  0  0  0  0  0  0  0  0  0
   18.5894   19.6315   22.3381 C   0  0  0  0  0  0  0  0  0  0  0  0
   18.0363   20.3842   22.9165 H   0  0  0  0  0  0  0  0  0  0  0  0
   18.7231   20.0522   21.3322 H   0  0  0  0  0  0  0  0  0  0  0  0
   19.9699   19.4145   22.9982 C   0  0  0  0  0  0  0  0  0  0  0  0
   19.8422   18.8998   23.9604 H   0  0  0  0  0  0  0  0  0  0  0  0
   20.5878   18.7647   22.3657 H   0  0  0  0  0  0  0  0  0  0  0  0
   20.7122   20.7492   23.2201 C   0  0  0  0  0  0  0  0  0  0  0  0
   20.1088   21.4079   23.8600 H   0  0  0  0  0  0  0  0  0  0  0  0
   20.8392   21.2660   22.2588 H   0  0  0  0  0  0  0  0  0  0  0  0
   22.0930   20.5297   23.8702 C   0  0  0  0  0  0  0  0  0  0  0  0
   21.9930   20.0417   24.8486 H   0  0  0  0  0  0  0  0  0  0  0  0
   22.6073   21.4879   24.0199 H   0  0  0  0  0  0  0  0  0  0  0  0
   22.7293   19.8985   23.2361 H   0  0  0  0  0  0  0  0  0  0  0  0
  1  2  1  0  0  0  0
  1  3  2  0  0  0  0
  1  4  1  0  0  0  0
  4  5  1  0  0  0  0
  4  6  1  0  0  0  0
  4  7  1  0  0  0  0
  7  8  1  0  0  0  0
  7  9  1  0  0  0  0
  7 10  1  0  0  0  0
 10 11  1  0  0  0  0
 10 12  1  0  0  0  0
 10 13  1  0  0  0  0
 13 14  1  0  0  0  0
 13 15  1  0  0  0  0
 13 16  1  0  0  0  0
 16 17  1  0  0  0  0
 16 18  1  0  0  0  0
 16 19  1  0  0  0  0
 19 20  1  0  0  0  0
 19 21  1  0  0  0  0
 19 22  1  0  0  0  0
M  END
> <VConfSearch Rank>
814

> <Conf_Id>
8

> <Delta U+W>
1.886

> <U+W>
-51.274

> <U>
11.237

> <W>
-62.510

> <W(PB)>
-64.777

> <W(SA)>
2.267

> <Valence>
9.029

> <Coulomb>
1.667

> <VdW>
0.540

> <VdW6>
-8.825

> <VdW12>
9.365

> <Bond>
0.186

> <Angle>
3.195

> <Pdih>
5.642

> <Idih>
0.007

> <Tether>
0.000

$$$$
VeraChem MOL file


 22 21  0  0  0  0  0  0  0  0999 V2000     
   18.9703   16.5195   24.2310 C   0  0  0  0  0  0  0  0  0  0  0  0
   20.0215   15.9949   23.9202 O   0  5  0  0  0  0  0  0  0  0  0  0
   17.9034   15.9373   24.2334 O   0  0  0  0  0  0  0  0  0  0  0  0
   18.9931   17.9805   24.6716 C   0  0  0  0  0  0  0  0  0  0  0  0
   20.0293   18.2680   24.8823 H   0  0  0  0  0  0  0  0  0  0  0  0
   18.4558   18.0411   25.6253 H   0  0  0  0  0  0  0  0  0  0  0  0
   18.3456   18.9611   23.6555 C   0  0  0  0  0  0  0  0  0  0  0  0
   17.2883   18.6893   23.5311 H   0  0  0  0  0  0  0  0  0  0  0  0
   18.3544   19.9751   24.0774 H   0  0  0  0  0  0  0  0  0  0  0  0
   19.0198   18.9833   22.2614 C   0  0  0  0  0  0  0  0  0  0  0  0
   18.4242   19.6331   21.6079 H   0  0  0  0  0  0  0  0  0  0  0  0
   18.9842   17.9797   21.8160 H   0  0  0  0  0  0  0  0  0  0  0  0
   20.4841   19.4856   22.2928 C   0  0  0  0  0  0  0  0  0  0  0  0
   20.5265   20.4809   22.7555 H   0  0  0  0  0  0  0  0  0  0  0  0
   21.0823   18.8187   22.9271 H   0  0  0  0  0  0  0  0  0  0  0  0
   21.1466   19.5349   20.8961 C   0  0  0  0  0  0  0  0  0  0  0  0
   21.0917   18.5439   20.4247 H   0  0  0  0  0  0  0  0  0  0  0  0
   22.2148   19.7592   21.0221 H   0  0  0  0  0  0  0  0  0  0  0  0
   20.5262   20.5935   19.9585 C   0  0  0  0  0  0  0  0  0  0  0  0
   19.4885   20.3457   19.7033 H   0  0  0  0  0  0  0  0  0  0  0  0
   21.0927   20.6534   19.0202 H   0  0  0  0  0  0  0  0  0  0  0  0
   20.5390   21.5872   20.4247 H   0  0  0  0  0  0  0  0  0  0  0  0
  1  2  1  0  0  0  0
  1  3  2  0  0  0  0
  1  4  1  0  0  0  0
  4  5  1  0  0  0  0
  4  6  1  0  0  0  0
  4  7  1  0  0  0  0
  7  8  1  0  0  0  0
  7  9  1  0  0  0  0
  7 10  1  0  0  0  0
 10 11  1  0  0  0  0
 10 12  1  0  0  0  0
 10 13  1  0  0  0  0
 13 14  1  0  0  0  0
 13 15  1  0  0  0  0
 13 16  1  0  0  0  0
 16 17  1  0  0  0  0
 16 18  1  0  0  0  0
 16 19  1  0  0  0  0
 19 20  1  0  0  0  0
 19 21  1  0  0  0  0
 19 22  1  0  0  0  0
M  END
> <VConfSearch Rank>
815

> <Conf_Id>
93

> <Delta U+W>
1.836

> <U+W>
-51.323

> <U>
10.427

> <W>
-61.751

> <W(PB)>
-63.980

> <W(SA)>
2.230

> <Valence>
8.446

> <Coulomb>
1.306

> <VdW>
0.676

> <VdW6>
-8.928

> <VdW12>
9.604

> <Bond>
0.209

> <Angle>
3.066

> <Pdih>
5.170

> <Idih>
0.001

> <Tether>
0.000

$$$$
VeraChem MOL file


 22 21  0  0  0  0  0  0  0  0999 V2000     
   17.4546   17.1595   23.2308 C   0  0  0  0  0  0  0  0  0  0  0  0
   16.7757   16.5205   22.4509 O   0  5  0  0  0  0  0  0  0  0  0  0
   17.0020   17.9973   23.9856 O   0  0  0  0  0  0  0  0  0  0  0  0
   18.9523   16.8707   23.2842 C   0  0  0  0  0  0  0  0  0  0  0  0
   19.0711   15.7850   23.3777 H   0  0  0  0  0  0  0  0  0  0  0  0
   19.3617   17.3063   24.2025 H   0  0  0  0  0  0  0  0  0  0  0  0
   19.7401   17.3672   22.0408 C   0  0  0  0  0  0  0  0  0  0  0  0
   20.7925   17.0682   22.1378 H   0  0  0  0  0  0  0  0  0  0  0  0
   19.3544   16.8495   21.1517 H   0  0  0  0  0  0  0  0  0  0  0  0
   19.6648   18.8949   21.7973 C   0  0  0  0  0  0  0  0  0  0  0  0
   18.6174   19.1981   21.6635 H   0  0  0  0  0  0  0  0  0  0  0  0
   20.1732   19.1119   20.8495 H   0  0  0  0  0  0  0  0  0  0  0  0
   20.3068   19.7320   22.9308 C   0  0  0  0  0  0  0  0  0  0  0  0
   19.7794   19.5315   23.8724 H   0  0  0  0  0  0  0  0  0  0  0  0
   21.3486   19.4182   23.0811 H   0  0  0  0  0  0  0  0  0  0  0  0
   20.2569   21.2561   22.6724 C   0  0  0  0  0  0  0  0  0  0  0  0
   20.5966   21.7769   23.5782 H   0  0  0  0  0  0  0  0  0  0  0  0
   19.2171   21.5700   22.5062 H   0  0  0  0  0  0  0  0  0  0  0  0
   21.1341   21.7072   21.4842 C   0  0  0  0  0  0  0  0  0  0  0  0
   20.7591   21.3085   20.5335 H   0  0  0  0  0  0  0  0  0  0  0  0
   22.1719   21.3734   21.6130 H   0  0  0  0  0  0  0  0  0  0  0  0
   21.1388   22.8020   21.4053 H   0  0  0  0  0  0  0  0  0  0  0  0
  1  2  1  0  0  0  0
  1  3  2  0  0  0  0
  1  4  1  0  0  0  0
  4  5  1  0  0  0  0
  4  6  1  0  0  0  0
  4  7  1  0  0  0  0
  7  8  1  0  0  0  0
  7  9  1  0  0  0  0
  7 10  1  0  0  0  0
 10 11  1  0  0  0  0
 10 12  1  0  0  0  0
 10 13  1  0  0  0  0
 13 14  1  0  0  0  0
 13 15  1  0  0  0  0
 13 16  1  0  0  0  0
 16 17  1  0  0  0  0
 16 18  1  0  0  0  0
 16 19  1  0  0  0  0
 19 20  1  0  0  0  0
 19 21  1  0  0  0  0
 19 22  1  0  0  0  0
M  END
> <VConfSearch Rank>
816

> <Conf_Id>
70

> <Delta U+W>
1.803

> <U+W>
-51.356

> <U>
10.428

> <W>
-61.784

> <W(PB)>
-64.014

> <W(SA)>
2.230

> <Valence>
8.445

> <Coulomb>
1.306

> <VdW>
0.676

> <VdW6>
-8.929

> <VdW12>
9.605

> <Bond>
0.209

> <Angle>
3.066

> <Pdih>
5.170

> <Idih>
0.001

> <Tether>
0.000

$$$$
VeraChem MOL file


 22 21  0  0  0  0  0  0  0  0999 V2000     
   17.5968   18.8121   24.9655 C   0  0  0  0  0  0  0  0  0  0  0  0
   17.0093   19.8759   24.9486 O   0  5  0  0  0  0  0  0  0  0  0  0
   18.2147   18.4006   25.9276 O   0  0  0  0  0  0  0  0  0  0  0  0
   17.5361   17.9374   23.7164 C   0  0  0  0  0  0  0  0  0  0  0  0
   16.4953   17.9282   23.3721 H   0  0  0  0  0  0  0  0  0  0  0  0
   17.7862   16.9073   23.9979 H   0  0  0  0  0  0  0  0  0  0  0  0
   18.4582   18.4180   22.5658 C   0  0  0  0  0  0  0  0  0  0  0  0
   18.2551   17.8153   21.6704 H   0  0  0  0  0  0  0  0  0  0  0  0
   18.2022   19.4559   22.3153 H   0  0  0  0  0  0  0  0  0  0  0  0
   19.9593   18.3088   22.9255 C   0  0  0  0  0  0  0  0  0  0  0  0
   20.1732   17.2835   23.2567 H   0  0  0  0  0  0  0  0  0  0  0  0
   20.1872   18.9630   23.7784 H   0  0  0  0  0  0  0  0  0  0  0  0
   20.9016   18.6512   21.7472 C   0  0  0  0  0  0  0  0  0  0  0  0
   21.9337   18.4297   22.0515 H   0  0  0  0  0  0  0  0  0  0  0  0
   20.6808   17.9931   20.8957 H   0  0  0  0  0  0  0  0  0  0  0  0
   20.8166   20.1281   21.3003 C   0  0  0  0  0  0  0  0  0  0  0  0
   20.9852   20.7866   22.1635 H   0  0  0  0  0  0  0  0  0  0  0  0
   19.8115   20.3508   20.9188 H   0  0  0  0  0  0  0  0  0  0  0  0
   21.8516   20.4472   20.2027 C   0  0  0  0  0  0  0  0  0  0  0  0
   22.8737   20.2723   20.5631 H   0  0  0  0  0  0  0  0  0  0  0  0
   21.7765   21.4980   19.8941 H   0  0  0  0  0  0  0  0  0  0  0  0
   21.6887   19.8209   19.3158 H   0  0  0  0  0  0  0  0  0  0  0  0
  1  2  1  0  0  0  0
  1  3  2  0  0  0  0
  1  4  1  0  0  0  0
  4  5  1  0  0  0  0
  4  6  1  0  0  0  0
  4  7  1  0  0  0  0
  7  8  1  0  0  0  0
  7  9  1  0  0  0  0
  7 10  1  0  0  0  0
 10 11  1  0  0  0  0
 10 12  1  0  0  0  0
 10 13  1  0  0  0  0
 13 14  1  0  0  0  0
 13 15  1  0  0  0  0
 13 16  1  0  0  0  0
 16 17  1  0  0  0  0
 16 18  1  0  0  0  0
 16 19  1  0  0  0  0
 19 20  1  0  0  0  0
 19 21  1  0  0  0  0
 19 22  1  0  0  0  0
M  END
> <VConfSearch Rank>
817

> <Conf_Id>
85

> <Delta U+W>
0.707

> <U+W>
-52.452

> <U>
8.925

> <W>
-61.378

> <W(PB)>
-63.661

> <W(SA)>
2.283

> <Valence>
7.881

> <Coulomb>
0.349

> <VdW>
0.695

> <VdW6>
-8.049

> <VdW12>
8.743

> <Bond>
0.156

> <Angle>
2.660

> <Pdih>
5.064

> <Idih>
0.001

> <Tether>
0.000

$$$$
VeraChem MOL file


 22 21  0  0  0  0  0  0  0  0999 V2000     
   18.4843   16.7592   24.5587 C   0  0  0  0  0  0  0  0  0  0  0  0
   18.8252   16.9821   25.7037 O   0  5  0  0  0  0  0  0  0  0  0  0
   17.3311   16.5680   24.2259 O   0  0  0  0  0  0  0  0  0  0  0  0
   19.5641   16.6922   23.4822 C   0  0  0  0  0  0  0  0  0  0  0  0
   19.3683   15.7984   22.8783 H   0  0  0  0  0  0  0  0  0  0  0  0
   20.5354   16.5403   23.9684 H   0  0  0  0  0  0  0  0  0  0  0  0
   19.6163   17.9380   22.5597 C   0  0  0  0  0  0  0  0  0  0  0  0
   20.3071   17.7274   21.7336 H   0  0  0  0  0  0  0  0  0  0  0  0
   18.6250   18.1058   22.1164 H   0  0  0  0  0  0  0  0  0  0  0  0
   20.0824   19.2107   23.3040 C   0  0  0  0  0  0  0  0  0  0  0  0
   21.1077   19.0643   23.6700 H   0  0  0  0  0  0  0  0  0  0  0  0
   19.4569   19.3569   24.1952 H   0  0  0  0  0  0  0  0  0  0  0  0
   20.0184   20.5043   22.4538 C   0  0  0  0  0  0  0  0  0  0  0  0
   18.9802   20.7107   22.1600 H   0  0  0  0  0  0  0  0  0  0  0  0
   20.3162   21.3398   23.1020 H   0  0  0  0  0  0  0  0  0  0  0  0
   20.9398   20.5090   21.2084 C   0  0  0  0  0  0  0  0  0  0  0  0
   21.8088   19.8576   21.3746 H   0  0  0  0  0  0  0  0  0  0  0  0
   21.3403   21.5230   21.0719 H   0  0  0  0  0  0  0  0  0  0  0  0
   20.2086   20.1061   19.9084 C   0  0  0  0  0  0  0  0  0  0  0  0
   19.7945   19.0934   19.9697 H   0  0  0  0  0  0  0  0  0  0  0  0
   20.8985   20.1351   19.0552 H   0  0  0  0  0  0  0  0  0  0  0  0
   19.3825   20.7971   19.6955 H   0  0  0  0  0  0  0  0  0  0  0  0
  1  2  1  0  0  0  0
  1  3  2  0  0  0  0
  1  4  1  0  0  0  0
  4  5  1  0  0  0  0
  4  6  1  0  0  0  0
  4  7  1  0  0  0  0
  7  8  1  0  0  0  0
  7  9  1  0  0  0  0
  7 10  1  0  0  0  0
 10 11  1  0  0  0  0
 10 12  1  0  0  0  0
 10 13  1  0  0  0  0
 13 14  1  0  0  0  0
 13 15  1  0  0  0  0
 13 16  1  0  0  0  0
 16 17  1  0  0  0  0
 16 18  1  0  0  0  0
 16 19  1  0  0  0  0
 19 20  1  0  0  0  0
 19 21  1  0  0  0  0
 19 22  1  0  0  0  0
M  END
> <VConfSearch Rank>
818

> <Conf_Id>
82

> <Delta U+W>
3.438

> <U+W>
-49.721

> <U>
11.773

> <W>
-61.495

> <W(PB)>
-63.749

> <W(SA)>
2.254

> <Valence>
10.419

> <Coulomb>
0.565

> <VdW>
0.789

> <VdW6>
-8.847

> <VdW12>
9.636

> <Bond>
0.200

> <Angle>
3.187

> <Pdih>
7.032

> <Idih>
0.001

> <Tether>
0.000

$$$$
VeraChem MOL file


 22 21  0  0  0  0  0  0  0  0999 V2000     
   18.9932   17.0158   24.9697 C   0  0  0  0  0  0  0  0  0  0  0  0
   19.1304   15.8488   24.6594 O   0  5  0  0  0  0  0  0  0  0  0  0
   19.3566   17.4752   26.0345 O   0  0  0  0  0  0  0  0  0  0  0  0
   18.3059   17.9484   23.9761 C   0  0  0  0  0  0  0  0  0  0  0  0
   17.9555   18.8376   24.5139 H   0  0  0  0  0  0  0  0  0  0  0  0
   17.4140   17.4301   23.6048 H   0  0  0  0  0  0  0  0  0  0  0  0
   19.1980   18.3646   22.7775 C   0  0  0  0  0  0  0  0  0  0  0  0
   19.5800   17.4643   22.2767 H   0  0  0  0  0  0  0  0  0  0  0  0
   18.5727   18.8972   22.0500 H   0  0  0  0  0  0  0  0  0  0  0  0
   20.3766   19.2722   23.1998 C   0  0  0  0  0  0  0  0  0  0  0  0
   20.9369   18.7831   24.0083 H   0  0  0  0  0  0  0  0  0  0  0  0
   19.9839   20.2075   23.6215 H   0  0  0  0  0  0  0  0  0  0  0  0
   21.3692   19.5995   22.0560 C   0  0  0  0  0  0  0  0  0  0  0  0
   22.1841   20.1965   22.4876 H   0  0  0  0  0  0  0  0  0  0  0  0
   21.8383   18.6763   21.6891 H   0  0  0  0  0  0  0  0  0  0  0  0
   20.7601   20.3977   20.8763 C   0  0  0  0  0  0  0  0  0  0  0  0
   21.5131   21.1074   20.5068 H   0  0  0  0  0  0  0  0  0  0  0  0
   19.9130   21.0050   21.2239 H   0  0  0  0  0  0  0  0  0  0  0  0
   20.3282   19.5021   19.6937 C   0  0  0  0  0  0  0  0  0  0  0  0
   21.1853   18.9459   19.2925 H   0  0  0  0  0  0  0  0  0  0  0  0
   19.9144   20.1128   18.8809 H   0  0  0  0  0  0  0  0  0  0  0  0
   19.5628   18.7758   19.9896 H   0  0  0  0  0  0  0  0  0  0  0  0
  1  2  1  0  0  0  0
  1  3  2  0  0  0  0
  1  4  1  0  0  0  0
  4  5  1  0  0  0  0
  4  6  1  0  0  0  0
  4  7  1  0  0  0  0
  7  8  1  0  0  0  0
  7  9  1  0  0  0  0
  7 10  1  0  0  0  0
 10 11  1  0  0  0  0
 10 12  1  0  0  0  0
 10 13  1  0  0  0  0
 13 14  1  0  0  0  0
 13 15  1  0  0  0  0
 13 16  1  0  0  0  0
 16 17  1  0  0  0  0
 16 18  1  0  0  0  0
 16 19  1  0  0  0  0
 19 20  1  0  0  0  0
 19 21  1  0  0  0  0
 19 22  1  0  0  0  0
M  END
> <VConfSearch Rank>
819

> <Conf_Id>
94

> <Delta U+W>
3.471

> <U+W>
-49.688

> <U>
11.773

> <W>
-61.461

> <W(PB)>
-63.710

> <W(SA)>
2.248

> <Valence>
10.419

> <Coulomb>
0.566

> <VdW>
0.789

> <VdW6>
-8.847

> <VdW12>
9.636

> <Bond>
0.200

> <Angle>
3.187

> <Pdih>
7.032

> <Idih>
0.001

> <Tether>
0.000

$$$$
VeraChem MOL file


 22 21  0  0  0  0  0  0  0  0999 V2000     
   19.0715   20.5415   25.2581 C   0  0  0  0  0  0  0  0  0  0  0  0
   18.6869   20.0956   26.3211 O   0  5  0  0  0  0  0  0  0  0  0  0
   18.8058   21.6591   24.8618 O   0  0  0  0  0  0  0  0  0  0  0  0
   19.9178   19.6421   24.3643 C   0  0  0  0  0  0  0  0  0  0  0  0
   20.5187   18.9892   25.0084 H   0  0  0  0  0  0  0  0  0  0  0  0
   20.6132   20.2822   23.8095 H   0  0  0  0  0  0  0  0  0  0  0  0
   19.0643   18.7919   23.3880 C   0  0  0  0  0  0  0  0  0  0  0  0
   18.3236   18.2250   23.9686 H   0  0  0  0  0  0  0  0  0  0  0  0
   18.4896   19.4557   22.7285 H   0  0  0  0  0  0  0  0  0  0  0  0
   19.8986   17.7953   22.5447 C   0  0  0  0  0  0  0  0  0  0  0  0
   19.2176   17.1996   21.9227 H   0  0  0  0  0  0  0  0  0  0  0  0
   20.3855   17.0798   23.2211 H   0  0  0  0  0  0  0  0  0  0  0  0
   20.9836   18.4404   21.6426 C   0  0  0  0  0  0  0  0  0  0  0  0
   21.7560   18.8987   22.2740 H   0  0  0  0  0  0  0  0  0  0  0  0
   21.4925   17.6436   21.0834 H   0  0  0  0  0  0  0  0  0  0  0  0
   20.4626   19.4986   20.6393 C   0  0  0  0  0  0  0  0  0  0  0  0
   21.3177   19.9010   20.0791 H   0  0  0  0  0  0  0  0  0  0  0  0
   20.0260   20.3492   21.1795 H   0  0  0  0  0  0  0  0  0  0  0  0
   19.4332   18.9337   19.6367 C   0  0  0  0  0  0  0  0  0  0  0  0
   19.8438   18.0709   19.0965 H   0  0  0  0  0  0  0  0  0  0  0  0
   19.1581   19.6968   18.8974 H   0  0  0  0  0  0  0  0  0  0  0  0
   18.5143   18.6164   20.1455 H   0  0  0  0  0  0  0  0  0  0  0  0
  1  2  1  0  0  0  0
  1  3  2  0  0  0  0
  1  4  1  0  0  0  0
  4  5  1  0  0  0  0
  4  6  1  0  0  0  0
  4  7  1  0  0  0  0
  7  8  1  0  0  0  0
  7  9  1  0  0  0  0
  7 10  1  0  0  0  0
 10 11  1  0  0  0  0
 10 12  1  0  0  0  0
 10 13  1  0  0  0  0
 13 14  1  0  0  0  0
 13 15  1  0  0  0  0
 13 16  1  0  0  0  0
 16 17  1  0  0  0  0
 16 18  1  0  0  0  0
 16 19  1  0  0  0  0
 19 20  1  0  0  0  0
 19 21  1  0  0  0  0
 19 22  1  0  0  0  0
M  END
> <VConfSearch Rank>
820

> <Conf_Id>
56

> <Delta U+W>
0.853

> <U+W>
-52.307

> <U>
8.874

> <W>
-61.181

> <W(PB)>
-63.413

> <W(SA)>
2.232

> <Valence>
8.479

> <Coulomb>
-0.357

> <VdW>
0.753

> <VdW6>
-9.081

> <VdW12>
9.833

> <Bond>
0.221

> <Angle>
3.208

> <Pdih>
5.050

> <Idih>
0.000

> <Tether>
0.000

$$$$
VeraChem MOL file


 22 21  0  0  0  0  0  0  0  0999 V2000     
   21.0567   15.1807   21.3103 C   0  0  0  0  0  0  0  0  0  0  0  0
   21.0702   14.8525   22.4809 O   0  5  0  0  0  0  0  0  0  0  0  0
   21.3582   14.4270   20.4065 O   0  0  0  0  0  0  0  0  0  0  0  0
   20.6454   16.6028   20.9254 C   0  0  0  0  0  0  0  0  0  0  0  0
   19.7975   16.5224   20.2350 H   0  0  0  0  0  0  0  0  0  0  0  0
   21.4771   17.0426   20.3624 H   0  0  0  0  0  0  0  0  0  0  0  0
   20.2688   17.5279   22.1131 C   0  0  0  0  0  0  0  0  0  0  0  0
   19.4393   17.0784   22.6764 H   0  0  0  0  0  0  0  0  0  0  0  0
   21.1204   17.5993   22.8039 H   0  0  0  0  0  0  0  0  0  0  0  0
   19.8673   18.9406   21.6357 C   0  0  0  0  0  0  0  0  0  0  0  0
   19.0158   18.8667   20.9453 H   0  0  0  0  0  0  0  0  0  0  0  0
   20.6980   19.3878   21.0727 H   0  0  0  0  0  0  0  0  0  0  0  0
   19.4931   19.8592   22.8187 C   0  0  0  0  0  0  0  0  0  0  0  0
   18.6624   19.4123   23.3821 H   0  0  0  0  0  0  0  0  0  0  0  0
   20.3443   19.9334   23.5094 H   0  0  0  0  0  0  0  0  0  0  0  0
   19.0918   21.2710   22.3424 C   0  0  0  0  0  0  0  0  0  0  0  0
   18.2391   21.2010   21.6528 H   0  0  0  0  0  0  0  0  0  0  0  0
   19.9211   21.7221   21.7801 H   0  0  0  0  0  0  0  0  0  0  0  0
   18.7189   22.1853   23.5267 C   0  0  0  0  0  0  0  0  0  0  0  0
   17.8705   21.7735   24.0888 H   0  0  0  0  0  0  0  0  0  0  0  0
   18.4363   23.1843   23.1701 H   0  0  0  0  0  0  0  0  0  0  0  0
   19.5651   22.2985   24.2170 H   0  0  0  0  0  0  0  0  0  0  0  0
  1  2  1  0  0  0  0
  1  3  2  0  0  0  0
  1  4  1  0  0  0  0
  4  5  1  0  0  0  0
  4  6  1  0  0  0  0
  4  7  1  0  0  0  0
  7  8  1  0  0  0  0
  7  9  1  0  0  0  0
  7 10  1  0  0  0  0
 10 11  1  0  0  0  0
 10 12  1  0  0  0  0
 10 13  1  0  0  0  0
 13 14  1  0  0  0  0
 13 15  1  0  0  0  0
 13 16  1  0  0  0  0
 16 17  1  0  0  0  0
 16 18  1  0  0  0  0
 16 19  1  0  0  0  0
 19 20  1  0  0  0  0
 19 21  1  0  0  0  0
 19 22  1  0  0  0  0
M  END
> <VConfSearch Rank>
821

> <Conf_Id>
0

> <Delta U+W>
0.000

> <U+W>
-53.159

> <U>
6.763

> <W>
-59.922

> <W(PB)>
-62.256

> <W(SA)>
2.334

> <Valence>
7.600

> <Coulomb>
-2.139

> <VdW>
1.302

> <VdW6>
-6.786

> <VdW12>
8.088

> <Bond>
0.134

> <Angle>
2.720

> <Pdih>
4.746

> <Idih>
0.000

> <Tether>
0.000

$$$$
VeraChem MOL file


 22 21  0  0  0  0  0  0  0  0999 V2000     
   16.3769   18.4994   20.1064 C   0  0  0  0  0  0  0  0  0  0  0  0
   16.4603   18.7786   18.9267 O   0  5  0  0  0  0  0  0  0  0  0  0
   15.3692   18.6592   20.7662 O   0  0  0  0  0  0  0  0  0  0  0  0
   17.6118   17.9385   20.8024 C   0  0  0  0  0  0  0  0  0  0  0  0
   18.1764   17.3478   20.0710 H   0  0  0  0  0  0  0  0  0  0  0  0
   17.2771   17.2491   21.5869 H   0  0  0  0  0  0  0  0  0  0  0  0
   18.5136   19.0415   21.4093 C   0  0  0  0  0  0  0  0  0  0  0  0
   18.8294   19.7305   20.6136 H   0  0  0  0  0  0  0  0  0  0  0  0
   17.9301   19.6318   22.1295 H   0  0  0  0  0  0  0  0  0  0  0  0
   19.7562   18.4483   22.1078 C   0  0  0  0  0  0  0  0  0  0  0  0
   20.3365   17.8578   21.3855 H   0  0  0  0  0  0  0  0  0  0  0  0
   19.4370   17.7591   22.9017 H   0  0  0  0  0  0  0  0  0  0  0  0
   20.6532   19.5501   22.7118 C   0  0  0  0  0  0  0  0  0  0  0  0
   20.9725   20.2395   21.9182 H   0  0  0  0  0  0  0  0  0  0  0  0
   20.0732   20.1408   23.4341 H   0  0  0  0  0  0  0  0  0  0  0  0
   21.8953   18.9580   23.4101 C   0  0  0  0  0  0  0  0  0  0  0  0
   22.4792   18.3680   22.6901 H   0  0  0  0  0  0  0  0  0  0  0  0
   21.5798   18.2692   24.2060 H   0  0  0  0  0  0  0  0  0  0  0  0
   22.7884   20.0614   24.0119 C   0  0  0  0  0  0  0  0  0  0  0  0
   22.2383   20.6478   24.7595 H   0  0  0  0  0  0  0  0  0  0  0  0
   23.1443   20.7475   23.2321 H   0  0  0  0  0  0  0  0  0  0  0  0
   23.6663   19.6231   24.5040 H   0  0  0  0  0  0  0  0  0  0  0  0
  1  2  1  0  0  0  0
  1  3  2  0  0  0  0
  1  4  1  0  0  0  0
  4  5  1  0  0  0  0
  4  6  1  0  0  0  0
  4  7  1  0  0  0  0
  7  8  1  0  0  0  0
  7  9  1  0  0  0  0
  7 10  1  0  0  0  0
 10 11  1  0  0  0  0
 10 12  1  0  0  0  0
 10 13  1  0  0  0  0
 13 14  1  0  0  0  0
 13 15  1  0  0  0  0
 13 16  1  0  0  0  0
 16 17  1  0  0  0  0
 16 18  1  0  0  0  0
 16 19  1  0  0  0  0
 19 20  1  0  0  0  0
 19 21  1  0  0  0  0
 19 22  1  0  0  0  0
M  END
> <VConfSearch Rank>
822

> <Conf_Id>
10

> <Delta U+W>
-1.291

> <U+W>
-54.451

> <U>
5.779

> <W>
-60.230

> <W(PB)>
-62.557

> <W(SA)>
2.328

> <Valence>
7.101

> <Coulomb>
-2.079

> <VdW>
0.757

> <VdW6>
-6.496

> <VdW12>
7.253

> <Bond>
0.100

> <Angle>
2.262

> <Pdih>
4.738

> <Idih>
0.001

> <Tether>
0.000

$$$$
VeraChem MOL file


 22 21  0  0  0  0  0  0  0  0999 V2000     
   21.2685   15.3926   21.4124 C   0  0  0  0  0  0  0  0  0  0  0  0
   21.7385   15.3145   20.2946 O   0  5  0  0  0  0  0  0  0  0  0  0
   21.6192   14.6911   22.3405 O   0  0  0  0  0  0  0  0  0  0  0  0
   20.1942   16.4433   21.6698 C   0  0  0  0  0  0  0  0  0  0  0  0
   19.5122   16.0530   22.4349 H   0  0  0  0  0  0  0  0  0  0  0  0
   19.6116   16.5675   20.7491 H   0  0  0  0  0  0  0  0  0  0  0  0
   20.7793   17.8046   22.1199 C   0  0  0  0  0  0  0  0  0  0  0  0
   21.3705   17.6604   23.0349 H   0  0  0  0  0  0  0  0  0  0  0  0
   21.4693   18.1757   21.3493 H   0  0  0  0  0  0  0  0  0  0  0  0
   19.6721   18.8505   22.3739 C   0  0  0  0  0  0  0  0  0  0  0  0
   18.9853   18.4778   23.1460 H   0  0  0  0  0  0  0  0  0  0  0  0
   19.0837   18.9815   21.4564 H   0  0  0  0  0  0  0  0  0  0  0  0
   20.2615   20.2086   22.8193 C   0  0  0  0  0  0  0  0  0  0  0  0
   20.9040   20.0491   23.6960 H   0  0  0  0  0  0  0  0  0  0  0  0
   20.9095   20.6087   22.0274 H   0  0  0  0  0  0  0  0  0  0  0  0
   19.1843   21.2563   23.1843 C   0  0  0  0  0  0  0  0  0  0  0  0
   19.6820   22.1435   23.5995 H   0  0  0  0  0  0  0  0  0  0  0  0
   18.5380   20.8621   23.9807 H   0  0  0  0  0  0  0  0  0  0  0  0
   18.3198   21.6893   21.9804 C   0  0  0  0  0  0  0  0  0  0  0  0
   17.6334   22.4951   22.2710 H   0  0  0  0  0  0  0  0  0  0  0  0
   17.7132   20.8569   21.6026 H   0  0  0  0  0  0  0  0  0  0  0  0
   18.9472   22.0595   21.1592 H   0  0  0  0  0  0  0  0  0  0  0  0
  1  2  1  0  0  0  0
  1  3  2  0  0  0  0
  1  4  1  0  0  0  0
  4  5  1  0  0  0  0
  4  6  1  0  0  0  0
  4  7  1  0  0  0  0
  7  8  1  0  0  0  0
  7  9  1  0  0  0  0
  7 10  1  0  0  0  0
 10 11  1  0  0  0  0
 10 12  1  0  0  0  0
 10 13  1  0  0  0  0
 13 14  1  0  0  0  0
 13 15  1  0  0  0  0
 13 16  1  0  0  0  0
 16 17  1  0  0  0  0
 16 18  1  0  0  0  0
 16 19  1  0  0  0  0
 19 20  1  0  0  0  0
 19 21  1  0  0  0  0
 19 22  1  0  0  0  0
M  END
> <VConfSearch Rank>
823

> <Conf_Id>
37

> <Delta U+W>
-0.345

> <U+W>
-53.504

> <U>
6.751

> <W>
-60.255

> <W(PB)>
-62.592

> <W(SA)>
2.336

> <Valence>
7.602

> <Coulomb>
-1.744

> <VdW>
0.894

> <VdW6>
-7.110

> <VdW12>
8.004

> <Bond>
0.131

> <Angle>
2.489

> <Pdih>
4.982

> <Idih>
0.001

> <Tether>
0.000

$$$$
VeraChem MOL file


 22 21  0  0  0  0  0  0  0  0999 V2000     
   16.8980   16.5654   21.3165 C   0  0  0  0  0  0  0  0  0  0  0  0
   16.7691   15.6714   22.1293 O   0  5  0  0  0  0  0  0  0  0  0  0
   16.5717   16.4667   20.1502 O   0  0  0  0  0  0  0  0  0  0  0  0
   17.5239   17.8757   21.7806 C   0  0  0  0  0  0  0  0  0  0  0  0
   17.2425   18.0354   22.8285 H   0  0  0  0  0  0  0  0  0  0  0  0
   17.0791   18.6912   21.1976 H   0  0  0  0  0  0  0  0  0  0  0  0
   19.0653   17.8921   21.6328 C   0  0  0  0  0  0  0  0  0  0  0  0
   19.4944   17.0627   22.2120 H   0  0  0  0  0  0  0  0  0  0  0  0
   19.3305   17.7174   20.5808 H   0  0  0  0  0  0  0  0  0  0  0  0
   19.6744   19.2288   22.1090 C   0  0  0  0  0  0  0  0  0  0  0  0
   19.3975   19.3968   23.1579 H   0  0  0  0  0  0  0  0  0  0  0  0
   19.2454   20.0557   21.5267 H   0  0  0  0  0  0  0  0  0  0  0  0
   21.2135   19.2386   21.9629 C   0  0  0  0  0  0  0  0  0  0  0  0
   21.6495   18.4445   22.5844 H   0  0  0  0  0  0  0  0  0  0  0  0
   21.4754   18.9992   20.9232 H   0  0  0  0  0  0  0  0  0  0  0  0
   21.8574   20.5955   22.3312 C   0  0  0  0  0  0  0  0  0  0  0  0
   21.4283   21.3915   21.7070 H   0  0  0  0  0  0  0  0  0  0  0  0
   22.9283   20.5546   22.0890 H   0  0  0  0  0  0  0  0  0  0  0  0
   21.6990   20.9626   23.8226 C   0  0  0  0  0  0  0  0  0  0  0  0
   22.0943   20.1668   24.4673 H   0  0  0  0  0  0  0  0  0  0  0  0
   20.6467   21.1280   24.0851 H   0  0  0  0  0  0  0  0  0  0  0  0
   22.2471   21.8858   24.0509 H   0  0  0  0  0  0  0  0  0  0  0  0
  1  2  1  0  0  0  0
  1  3  2  0  0  0  0
  1  4  1  0  0  0  0
  4  5  1  0  0  0  0
  4  6  1  0  0  0  0
  4  7  1  0  0  0  0
  7  8  1  0  0  0  0
  7  9  1  0  0  0  0
  7 10  1  0  0  0  0
 10 11  1  0  0  0  0
 10 12  1  0  0  0  0
 10 13  1  0  0  0  0
 13 14  1  0  0  0  0
 13 15  1  0  0  0  0
 13 16  1  0  0  0  0
 16 17  1  0  0  0  0
 16 18  1  0  0  0  0
 16 19  1  0  0  0  0
 19 20  1  0  0  0  0
 19 21  1  0  0  0  0
 19 22  1  0  0  0  0
M  END
> <VConfSearch Rank>
824

> <Conf_Id>
38

> <Delta U+W>
-0.439

> <U+W>
-53.598

> <U>
6.751

> <W>
-60.350

> <W(PB)>
-62.659

> <W(SA)>
2.309

> <Valence>
7.602

> <Coulomb>
-1.744

> <VdW>
0.893

> <VdW6>
-7.110

> <VdW12>
8.004

> <Bond>
0.131

> <Angle>
2.489

> <Pdih>
4.981

> <Idih>
0.001

> <Tether>
0.000

$$$$
VeraChem MOL file


 22 21  0  0  0  0  0  0  0  0999 V2000     
   22.9058   21.2384   22.4446 C   0  0  0  0  0  0  0  0  0  0  0  0
   23.8797   20.9830   23.1250 O   0  5  0  0  0  0  0  0  0  0  0  0
   22.6312   22.3564   22.0560 O   0  0  0  0  0  0  0  0  0  0  0  0
   21.9645   20.0966   22.0776 C   0  0  0  0  0  0  0  0  0  0  0  0
   22.5608   19.1811   21.9844 H   0  0  0  0  0  0  0  0  0  0  0  0
   21.5466   20.3153   21.0887 H   0  0  0  0  0  0  0  0  0  0  0  0
   20.8329   19.8944   23.1189 C   0  0  0  0  0  0  0  0  0  0  0  0
   21.2873   19.7755   24.1123 H   0  0  0  0  0  0  0  0  0  0  0  0
   20.2127   20.8000   23.1684 H   0  0  0  0  0  0  0  0  0  0  0  0
   19.9396   18.6633   22.8339 C   0  0  0  0  0  0  0  0  0  0  0  0
   19.2694   18.5245   23.6918 H   0  0  0  0  0  0  0  0  0  0  0  0
   20.5636   17.7612   22.7767 H   0  0  0  0  0  0  0  0  0  0  0  0
   19.0981   18.7998   21.5411 C   0  0  0  0  0  0  0  0  0  0  0  0
   18.4754   19.7030   21.5977 H   0  0  0  0  0  0  0  0  0  0  0  0
   19.7671   18.9356   20.6820 H   0  0  0  0  0  0  0  0  0  0  0  0
   18.2021   17.5711   21.2591 C   0  0  0  0  0  0  0  0  0  0  0  0
   18.8200   16.6637   21.2131 H   0  0  0  0  0  0  0  0  0  0  0  0
   17.7487   17.6878   20.2651 H   0  0  0  0  0  0  0  0  0  0  0  0
   17.0750   17.3813   22.2975 C   0  0  0  0  0  0  0  0  0  0  0  0
   17.4782   17.1394   23.2886 H   0  0  0  0  0  0  0  0  0  0  0  0
   16.4136   16.5577   21.9990 H   0  0  0  0  0  0  0  0  0  0  0  0
   16.4647   18.2896   22.3855 H   0  0  0  0  0  0  0  0  0  0  0  0
  1  2  1  0  0  0  0
  1  3  2  0  0  0  0
  1  4  1  0  0  0  0
  4  5  1  0  0  0  0
  4  6  1  0  0  0  0
  4  7  1  0  0  0  0
  7  8  1  0  0  0  0
  7  9  1  0  0  0  0
  7 10  1  0  0  0  0
 10 11  1  0  0  0  0
 10 12  1  0  0  0  0
 10 13  1  0  0  0  0
 13 14  1  0  0  0  0
 13 15  1  0  0  0  0
 13 16  1  0  0  0  0
 16 17  1  0  0  0  0
 16 18  1  0  0  0  0
 16 19  1  0  0  0  0
 19 20  1  0  0  0  0
 19 21  1  0  0  0  0
 19 22  1  0  0  0  0
M  END
> <VConfSearch Rank>
825

> <Conf_Id>
60

> <Delta U+W>
0.386

> <U+W>
-52.773

> <U>
7.689

> <W>
-60.463

> <W(PB)>
-62.772

> <W(SA)>
2.309

> <Valence>
8.197

> <Coulomb>
-1.561

> <VdW>
1.053

> <VdW6>
-7.737

> <VdW12>
8.790

> <Bond>
0.181

> <Angle>
2.780

> <Pdih>
5.235

> <Idih>
0.001

> <Tether>
0.000

$$$$
VeraChem MOL file


 22 21  0  0  0  0  0  0  0  0999 V2000     
   21.3112   21.4921   19.8771 C   0  0  0  0  0  0  0  0  0  0  0  0
   21.5920   22.5057   20.4856 O   0  5  0  0  0  0  0  0  0  0  0  0
   21.1821   21.4464   18.6697 O   0  0  0  0  0  0  0  0  0  0  0  0
   21.0863   20.2122   20.6742 C   0  0  0  0  0  0  0  0  0  0  0  0
   21.7541   20.2396   21.5424 H   0  0  0  0  0  0  0  0  0  0  0  0
   21.3963   19.3648   20.0511 H   0  0  0  0  0  0  0  0  0  0  0  0
   19.6118   20.0360   21.1218 C   0  0  0  0  0  0  0  0  0  0  0  0
   19.3273   20.8648   21.7848 H   0  0  0  0  0  0  0  0  0  0  0  0
   18.9650   20.1116   20.2367 H   0  0  0  0  0  0  0  0  0  0  0  0
   19.3329   18.6853   21.8235 C   0  0  0  0  0  0  0  0  0  0  0  0
   19.6260   17.8592   21.1613 H   0  0  0  0  0  0  0  0  0  0  0  0
   18.2490   18.5968   21.9707 H   0  0  0  0  0  0  0  0  0  0  0  0
   20.0505   18.5411   23.1881 C   0  0  0  0  0  0  0  0  0  0  0  0
   21.1347   18.6262   23.0420 H   0  0  0  0  0  0  0  0  0  0  0  0
   19.7588   19.3682   23.8496 H   0  0  0  0  0  0  0  0  0  0  0  0
   19.7679   17.1928   23.8911 C   0  0  0  0  0  0  0  0  0  0  0  0
   20.4157   17.1150   24.7752 H   0  0  0  0  0  0  0  0  0  0  0  0
   20.0477   16.3625   23.2281 H   0  0  0  0  0  0  0  0  0  0  0  0
   18.2990   17.0293   24.3386 C   0  0  0  0  0  0  0  0  0  0  0  0
   17.9865   17.8672   24.9753 H   0  0  0  0  0  0  0  0  0  0  0  0
   18.1745   16.1031   24.9144 H   0  0  0  0  0  0  0  0  0  0  0  0
   17.6202   16.9779   23.4784 H   0  0  0  0  0  0  0  0  0  0  0  0
  1  2  1  0  0  0  0
  1  3  2  0  0  0  0
  1  4  1  0  0  0  0
  4  5  1  0  0  0  0
  4  6  1  0  0  0  0
  4  7  1  0  0  0  0
  7  8  1  0  0  0  0
  7  9  1  0  0  0  0
  7 10  1  0  0  0  0
 10 11  1  0  0  0  0
 10 12  1  0  0  0  0
 10 13  1  0  0  0  0
 13 14  1  0  0  0  0
 13 15  1  0  0  0  0
 13 16  1  0  0  0  0
 16 17  1  0  0  0  0
 16 18  1  0  0  0  0
 16 19  1  0  0  0  0
 19 20  1  0  0  0  0
 19 21  1  0  0  0  0
 19 22  1  0  0  0  0
M  END
> <VConfSearch Rank>
826

> <Conf_Id>
28

> <Delta U+W>
0.351

> <U+W>
-52.808

> <U>
7.689

> <W>
-60.498

> <W(PB)>
-62.768

> <W(SA)>
2.270

> <Valence>
8.197

> <Coulomb>
-1.561

> <VdW>
1.053

> <VdW6>
-7.737

> <VdW12>
8.791

> <Bond>
0.181

> <Angle>
2.780

> <Pdih>
5.235

> <Idih>
0.001

> <Tether>
0.000

$$$$
VeraChem MOL file


 22 21  0  0  0  0  0  0  0  0999 V2000     
   20.3685   22.5490   22.8768 C   0  0  0  0  0  0  0  0  0  0  0  0
   20.5091   23.2564   21.8989 O   0  5  0  0  0  0  0  0  0  0  0  0
   19.6794   22.8495   23.8314 O   0  0  0  0  0  0  0  0  0  0  0  0
   21.0804   21.2010   22.8986 C   0  0  0  0  0  0  0  0  0  0  0  0
   21.3374   20.9680   23.9390 H   0  0  0  0  0  0  0  0  0  0  0  0
   22.0226   21.3045   22.3471 H   0  0  0  0  0  0  0  0  0  0  0  0
   20.2272   20.0602   22.2912 C   0  0  0  0  0  0  0  0  0  0  0  0
   19.2826   19.9898   22.8464 H   0  0  0  0  0  0  0  0  0  0  0  0
   19.9708   20.3125   21.2529 H   0  0  0  0  0  0  0  0  0  0  0  0
   20.9707   18.7050   22.3305 C   0  0  0  0  0  0  0  0  0  0  0  0
   21.1805   18.4271   23.3725 H   0  0  0  0  0  0  0  0  0  0  0  0
   21.9456   18.8183   21.8367 H   0  0  0  0  0  0  0  0  0  0  0  0
   20.1997   17.5586   21.6341 C   0  0  0  0  0  0  0  0  0  0  0  0
   19.9933   17.8343   20.5909 H   0  0  0  0  0  0  0  0  0  0  0  0
   20.8496   16.6735   21.5985 H   0  0  0  0  0  0  0  0  0  0  0  0
   18.8797   17.1828   22.3446 C   0  0  0  0  0  0  0  0  0  0  0  0
   18.1832   18.0312   22.3226 H   0  0  0  0  0  0  0  0  0  0  0  0
   19.0785   16.9580   23.4015 H   0  0  0  0  0  0  0  0  0  0  0  0
   18.2069   15.9649   21.6799 C   0  0  0  0  0  0  0  0  0  0  0  0
   18.8616   15.0844   21.7180 H   0  0  0  0  0  0  0  0  0  0  0  0
   17.9717   16.1722   20.6277 H   0  0  0  0  0  0  0  0  0  0  0  0
   17.2700   15.7127   22.1933 H   0  0  0  0  0  0  0  0  0  0  0  0
  1  2  1  0  0  0  0
  1  3  2  0  0  0  0
  1  4  1  0  0  0  0
  4  5  1  0  0  0  0
  4  6  1  0  0  0  0
  4  7  1  0  0  0  0
  7  8  1  0  0  0  0
  7  9  1  0  0  0  0
  7 10  1  0  0  0  0
 10 11  1  0  0  0  0
 10 12  1  0  0  0  0
 10 13  1  0  0  0  0
 13 14  1  0  0  0  0
 13 15  1  0  0  0  0
 13 16  1  0  0  0  0
 16 17  1  0  0  0  0
 16 18  1  0  0  0  0
 16 19  1  0  0  0  0
 19 20  1  0  0  0  0
 19 21  1  0  0  0  0
 19 22  1  0  0  0  0
M  END
> <VConfSearch Rank>
827

> <Conf_Id>
50

> <Delta U+W>
-0.486

> <U+W>
-53.646

> <U>
7.026

> <W>
-60.672

> <W(PB)>
-62.964

> <W(SA)>
2.292

> <Valence>
7.637

> <Coulomb>
-1.488

> <VdW>
0.877

> <VdW6>
-7.165

> <VdW12>
8.043

> <Bond>
0.134

> <Angle>
2.513

> <Pdih>
4.990

> <Idih>
0.001

> <Tether>
0.000

$$$$
VeraChem MOL file


 22 21  0  0  0  0  0  0  0  0999 V2000     
   19.8474   22.6992   22.8923 C   0  0  0  0  0  0  0  0  0  0  0  0
   19.4707   23.0804   23.9828 O   0  5  0  0  0  0  0  0  0  0  0  0
   19.5674   23.2579   21.8503 O   0  0  0  0  0  0  0  0  0  0  0  0
   20.7019   21.4383   22.8261 C   0  0  0  0  0  0  0  0  0  0  0  0
   21.3122   21.3924   23.7361 H   0  0  0  0  0  0  0  0  0  0  0  0
   21.3905   21.5374   21.9784 H   0  0  0  0  0  0  0  0  0  0  0  0
   19.8590   20.1472   22.6812 C   0  0  0  0  0  0  0  0  0  0  0  0
   19.1688   20.0673   23.5324 H   0  0  0  0  0  0  0  0  0  0  0  0
   19.2431   20.2257   21.7756 H   0  0  0  0  0  0  0  0  0  0  0  0
   20.7502   18.8855   22.6120 C   0  0  0  0  0  0  0  0  0  0  0  0
   21.4117   18.8673   23.4890 H   0  0  0  0  0  0  0  0  0  0  0  0
   21.4039   18.9411   21.7307 H   0  0  0  0  0  0  0  0  0  0  0  0
   19.9462   17.5642   22.5777 C   0  0  0  0  0  0  0  0  0  0  0  0
   20.6515   16.7256   22.6564 H   0  0  0  0  0  0  0  0  0  0  0  0
   19.2953   17.5063   23.4608 H   0  0  0  0  0  0  0  0  0  0  0  0
   19.1013   17.3897   21.2955 C   0  0  0  0  0  0  0  0  0  0  0  0
   19.7433   17.5001   20.4106 H   0  0  0  0  0  0  0  0  0  0  0  0
   18.3361   18.1748   21.2366 H   0  0  0  0  0  0  0  0  0  0  0  0
   18.4096   16.0120   21.2575 C   0  0  0  0  0  0  0  0  0  0  0  0
   17.7395   15.8855   22.1179 H   0  0  0  0  0  0  0  0  0  0  0  0
   19.1486   15.2002   21.2759 H   0  0  0  0  0  0  0  0  0  0  0  0
   17.8114   15.9047   20.3433 H   0  0  0  0  0  0  0  0  0  0  0  0
  1  2  1  0  0  0  0
  1  3  2  0  0  0  0
  1  4  1  0  0  0  0
  4  5  1  0  0  0  0
  4  6  1  0  0  0  0
  4  7  1  0  0  0  0
  7  8  1  0  0  0  0
  7  9  1  0  0  0  0
  7 10  1  0  0  0  0
 10 11  1  0  0  0  0
 10 12  1  0  0  0  0
 10 13  1  0  0  0  0
 13 14  1  0  0  0  0
 13 15  1  0  0  0  0
 13 16  1  0  0  0  0
 16 17  1  0  0  0  0
 16 18  1  0  0  0  0
 16 19  1  0  0  0  0
 19 20  1  0  0  0  0
 19 21  1  0  0  0  0
 19 22  1  0  0  0  0
M  END
> <VConfSearch Rank>
828

> <Conf_Id>
51

> <Delta U+W>
-0.517

> <U+W>
-53.677

> <U>
7.026

> <W>
-60.703

> <W(PB)>
-63.007

> <W(SA)>
2.304

> <Valence>
7.638

> <Coulomb>
-1.488

> <VdW>
0.877

> <VdW6>
-7.165

> <VdW12>
8.042

> <Bond>
0.134

> <Angle>
2.513

> <Pdih>
4.990

> <Idih>
0.001

> <Tether>
0.000

$$$$
VeraChem MOL file


 22 21  0  0  0  0  0  0  0  0999 V2000     
   23.3405   18.4396   23.0818 C   0  0  0  0  0  0  0  0  0  0  0  0
   23.5879   17.3581   23.5777 O   0  5  0  0  0  0  0  0  0  0  0  0
   23.8013   18.8144   22.0216 O   0  0  0  0  0  0  0  0  0  0  0  0
   22.4151   19.3848   23.8430 C   0  0  0  0  0  0  0  0  0  0  0  0
   22.5645   20.4027   23.4629 H   0  0  0  0  0  0  0  0  0  0  0  0
   22.7381   19.3867   24.8907 H   0  0  0  0  0  0  0  0  0  0  0  0
   20.9153   18.9985   23.7641 C   0  0  0  0  0  0  0  0  0  0  0  0
   20.7858   17.9674   24.1215 H   0  0  0  0  0  0  0  0  0  0  0  0
   20.3447   19.6435   24.4460 H   0  0  0  0  0  0  0  0  0  0  0  0
   20.3413   19.1332   22.3358 C   0  0  0  0  0  0  0  0  0  0  0  0
   20.8962   18.4776   21.6505 H   0  0  0  0  0  0  0  0  0  0  0  0
   20.4850   20.1620   21.9782 H   0  0  0  0  0  0  0  0  0  0  0  0
   18.8406   18.7742   22.2865 C   0  0  0  0  0  0  0  0  0  0  0  0
   18.6977   17.7453   22.6443 H   0  0  0  0  0  0  0  0  0  0  0  0
   18.2831   19.4305   22.9688 H   0  0  0  0  0  0  0  0  0  0  0  0
   18.2668   18.9078   20.8603 C   0  0  0  0  0  0  0  0  0  0  0  0
   18.8210   18.2513   20.1752 H   0  0  0  0  0  0  0  0  0  0  0  0
   18.4065   19.9364   20.4997 H   0  0  0  0  0  0  0  0  0  0  0  0
   16.7683   18.5479   20.8149 C   0  0  0  0  0  0  0  0  0  0  0  0
   16.6029   17.5127   21.1410 H   0  0  0  0  0  0  0  0  0  0  0  0
   16.3771   18.6483   19.7941 H   0  0  0  0  0  0  0  0  0  0  0  0
   16.1852   19.2104   21.4680 H   0  0  0  0  0  0  0  0  0  0  0  0
  1  2  1  0  0  0  0
  1  3  2  0  0  0  0
  1  4  1  0  0  0  0
  4  5  1  0  0  0  0
  4  6  1  0  0  0  0
  4  7  1  0  0  0  0
  7  8  1  0  0  0  0
  7  9  1  0  0  0  0
  7 10  1  0  0  0  0
 10 11  1  0  0  0  0
 10 12  1  0  0  0  0
 10 13  1  0  0  0  0
 13 14  1  0  0  0  0
 13 15  1  0  0  0  0
 13 16  1  0  0  0  0
 16 17  1  0  0  0  0
 16 18  1  0  0  0  0
 16 19  1  0  0  0  0
 19 20  1  0  0  0  0
 19 21  1  0  0  0  0
 19 22  1  0  0  0  0
M  END
> <VConfSearch Rank>
829

> <Conf_Id>
43

> <Delta U+W>
-0.129

> <U+W>
-53.289

> <U>
7.937

> <W>
-61.225

> <W(PB)>
-63.523

> <W(SA)>
2.297

> <Valence>
7.358

> <Coulomb>
-0.022

> <VdW>
0.601

> <VdW6>
-7.363

> <VdW12>
7.964

> <Bond>
0.121

> <Angle>
2.425

> <Pdih>
4.811

> <Idih>
0.000

> <Tether>
0.000

$$$$
VeraChem MOL file


 22 21  0  0  0  0  0  0  0  0999 V2000     
   22.8026   20.4585   21.6504 C   0  0  0  0  0  0  0  0  0  0  0  0
   23.6926   19.6327   21.5975 O   0  5  0  0  0  0  0  0  0  0  0  0
   22.7770   21.3688   22.4550 O   0  0  0  0  0  0  0  0  0  0  0  0
   21.6652   20.3555   20.6381 C   0  0  0  0  0  0  0  0  0  0  0  0
   22.1166   20.1818   19.6542 H   0  0  0  0  0  0  0  0  0  0  0  0
   21.1538   21.3244   20.5861 H   0  0  0  0  0  0  0  0  0  0  0  0
   20.6462   19.2280   20.9468 C   0  0  0  0  0  0  0  0  0  0  0  0
   19.9489   19.1369   20.1029 H   0  0  0  0  0  0  0  0  0  0  0  0
   21.1769   18.2688   21.0235 H   0  0  0  0  0  0  0  0  0  0  0  0
   19.8461   19.4886   22.2428 C   0  0  0  0  0  0  0  0  0  0  0  0
   19.3281   20.4544   22.1662 H   0  0  0  0  0  0  0  0  0  0  0  0
   20.5359   19.5640   23.0948 H   0  0  0  0  0  0  0  0  0  0  0  0
   18.8166   18.3705   22.5137 C   0  0  0  0  0  0  0  0  0  0  0  0
   18.1238   18.2951   21.6643 H   0  0  0  0  0  0  0  0  0  0  0  0
   19.3353   17.4050   22.5901 H   0  0  0  0  0  0  0  0  0  0  0  0
   18.0177   18.6297   23.8082 C   0  0  0  0  0  0  0  0  0  0  0  0
   17.4960   19.5940   23.7347 H   0  0  0  0  0  0  0  0  0  0  0  0
   18.7074   18.7039   24.6604 H   0  0  0  0  0  0  0  0  0  0  0  0
   16.9911   17.5108   24.0758 C   0  0  0  0  0  0  0  0  0  0  0  0
   16.2688   17.4353   23.2524 H   0  0  0  0  0  0  0  0  0  0  0  0
   16.4325   17.7111   24.9993 H   0  0  0  0  0  0  0  0  0  0  0  0
   17.4893   16.5386   24.1851 H   0  0  0  0  0  0  0  0  0  0  0  0
  1  2  1  0  0  0  0
  1  3  2  0  0  0  0
  1  4  1  0  0  0  0
  4  5  1  0  0  0  0
  4  6  1  0  0  0  0
  4  7  1  0  0  0  0
  7  8  1  0  0  0  0
  7  9  1  0  0  0  0
  7 10  1  0  0  0  0
 10 11  1  0  0  0  0
 10 12  1  0  0  0  0
 10 13  1  0  0  0  0
 13 14  1  0  0  0  0
 13 15  1  0  0  0  0
 13 16  1  0  0  0  0
 16 17  1  0  0  0  0
 16 18  1  0  0  0  0
 16 19  1  0  0  0  0
 19 20  1  0  0  0  0
 19 21  1  0  0  0  0
 19 22  1  0  0  0  0
M  END
> <VConfSearch Rank>
830

> <Conf_Id>
44

> <Delta U+W>
-0.155

> <U+W>
-53.314

> <U>
7.937

> <W>
-61.252

> <W(PB)>
-63.556

> <W(SA)>
2.304

> <Valence>
7.358

> <Coulomb>
-0.021

> <VdW>
0.600

> <VdW6>
-7.363

> <VdW12>
7.964

> <Bond>
0.121

> <Angle>
2.425

> <Pdih>
4.811

> <Idih>
0.001

> <Tether>
0.000

$$$$
VeraChem MOL file


 22 21  0  0  0  0  0  0  0  0999 V2000     
   20.6015   15.6253   22.7770 C   0  0  0  0  0  0  0  0  0  0  0  0
   19.6386   14.9669   23.1180 O   0  5  0  0  0  0  0  0  0  0  0  0
   21.6726   15.5966   23.3505 O   0  0  0  0  0  0  0  0  0  0  0  0
   20.4617   16.5219   21.5499 C   0  0  0  0  0  0  0  0  0  0  0  0
   19.9694   15.9316   20.7681 H   0  0  0  0  0  0  0  0  0  0  0  0
   21.4641   16.7671   21.1786 H   0  0  0  0  0  0  0  0  0  0  0  0
   19.6526   17.8205   21.8041 C   0  0  0  0  0  0  0  0  0  0  0  0
   19.4760   18.3140   20.8401 H   0  0  0  0  0  0  0  0  0  0  0  0
   18.6665   17.5606   22.2134 H   0  0  0  0  0  0  0  0  0  0  0  0
   20.3787   18.7943   22.7632 C   0  0  0  0  0  0  0  0  0  0  0  0
   21.3462   19.0862   22.3325 H   0  0  0  0  0  0  0  0  0  0  0  0
   20.6039   18.2729   23.7037 H   0  0  0  0  0  0  0  0  0  0  0  0
   19.5553   20.0614   23.0952 C   0  0  0  0  0  0  0  0  0  0  0  0
   18.5878   19.7690   23.5257 H   0  0  0  0  0  0  0  0  0  0  0  0
   20.0846   20.6248   23.8758 H   0  0  0  0  0  0  0  0  0  0  0  0
   19.3266   20.9862   21.8783 C   0  0  0  0  0  0  0  0  0  0  0  0
   18.7284   20.4691   21.1167 H   0  0  0  0  0  0  0  0  0  0  0  0
   20.2914   21.2344   21.4149 H   0  0  0  0  0  0  0  0  0  0  0  0
   18.6042   22.2865   22.2845 C   0  0  0  0  0  0  0  0  0  0  0  0
   17.6232   22.0687   22.7268 H   0  0  0  0  0  0  0  0  0  0  0  0
   18.4462   22.9307   21.4098 H   0  0  0  0  0  0  0  0  0  0  0  0
   19.1937   22.8511   23.0187 H   0  0  0  0  0  0  0  0  0  0  0  0
  1  2  1  0  0  0  0
  1  3  2  0  0  0  0
  1  4  1  0  0  0  0
  4  5  1  0  0  0  0
  4  6  1  0  0  0  0
  4  7  1  0  0  0  0
  7  8  1  0  0  0  0
  7  9  1  0  0  0  0
  7 10  1  0  0  0  0
 10 11  1  0  0  0  0
 10 12  1  0  0  0  0
 10 13  1  0  0  0  0
 13 14  1  0  0  0  0
 13 15  1  0  0  0  0
 13 16  1  0  0  0  0
 16 17  1  0  0  0  0
 16 18  1  0  0  0  0
 16 19  1  0  0  0  0
 19 20  1  0  0  0  0
 19 21  1  0  0  0  0
 19 22  1  0  0  0  0
M  END
> <VConfSearch Rank>
831

> <Conf_Id>
53

> <Delta U+W>
0.723

> <U+W>
-52.436

> <U>
8.587

> <W>
-61.022

> <W(PB)>
-63.285

> <W(SA)>
2.263

> <Valence>
7.933

> <Coulomb>
-0.124

> <VdW>
0.778

> <VdW6>
-7.981

> <VdW12>
8.759

> <Bond>
0.160

> <Angle>
2.698

> <Pdih>
5.074

> <Idih>
0.001

> <Tether>
0.000

$$$$
VeraChem MOL file


 22 21  0  0  0  0  0  0  0  0999 V2000     
   22.1222   18.0370   24.5158 C   0  0  0  0  0  0  0  0  0  0  0  0
   21.6076   17.8358   25.5981 O   0  5  0  0  0  0  0  0  0  0  0  0
   23.2975   17.8356   24.2819 O   0  0  0  0  0  0  0  0  0  0  0  0
   21.2402   18.5492   23.3827 C   0  0  0  0  0  0  0  0  0  0  0  0
   21.8588   19.1687   22.7224 H   0  0  0  0  0  0  0  0  0  0  0  0
   20.4762   19.1983   23.8252 H   0  0  0  0  0  0  0  0  0  0  0  0
   20.5742   17.4056   22.5766 C   0  0  0  0  0  0  0  0  0  0  0  0
   21.3529   16.6970   22.2622 H   0  0  0  0  0  0  0  0  0  0  0  0
   19.8972   16.8455   23.2363 H   0  0  0  0  0  0  0  0  0  0  0  0
   19.8017   17.8766   21.3188 C   0  0  0  0  0  0  0  0  0  0  0  0
   19.4200   16.9804   20.8106 H   0  0  0  0  0  0  0  0  0  0  0  0
   20.4917   18.3513   20.6078 H   0  0  0  0  0  0  0  0  0  0  0  0
   18.6021   18.8132   21.6108 C   0  0  0  0  0  0  0  0  0  0  0  0
   17.7962   18.5779   20.9021 H   0  0  0  0  0  0  0  0  0  0  0  0
   18.1980   18.6083   22.6117 H   0  0  0  0  0  0  0  0  0  0  0  0
   18.9463   20.3136   21.4655 C   0  0  0  0  0  0  0  0  0  0  0  0
   19.2943   20.5134   20.4427 H   0  0  0  0  0  0  0  0  0  0  0  0
   19.7694   20.5879   22.1360 H   0  0  0  0  0  0  0  0  0  0  0  0
   17.7262   21.2056   21.7708 C   0  0  0  0  0  0  0  0  0  0  0  0
   16.8959   20.9833   21.0878 H   0  0  0  0  0  0  0  0  0  0  0  0
   17.9843   22.2664   21.6567 H   0  0  0  0  0  0  0  0  0  0  0  0
   17.3750   21.0510   22.7995 H   0  0  0  0  0  0  0  0  0  0  0  0
  1  2  1  0  0  0  0
  1  3  2  0  0  0  0
  1  4  1  0  0  0  0
  4  5  1  0  0  0  0
  4  6  1  0  0  0  0
  4  7  1  0  0  0  0
  7  8  1  0  0  0  0
  7  9  1  0  0  0  0
  7 10  1  0  0  0  0
 10 11  1  0  0  0  0
 10 12  1  0  0  0  0
 10 13  1  0  0  0  0
 13 14  1  0  0  0  0
 13 15  1  0  0  0  0
 13 16  1  0  0  0  0
 16 17  1  0  0  0  0
 16 18  1  0  0  0  0
 16 19  1  0  0  0  0
 19 20  1  0  0  0  0
 19 21  1  0  0  0  0
 19 22  1  0  0  0  0
M  END
> <VConfSearch Rank>
832

> <Conf_Id>
5

> <Delta U+W>
2.167

> <U+W>
-50.993

> <U>
10.045

> <W>
-61.037

> <W(PB)>
-63.303

> <W(SA)>
2.266

> <Valence>
10.100

> <Coulomb>
-0.883

> <VdW>
0.828

> <VdW6>
-8.177

> <VdW12>
9.005

> <Bond>
0.182

> <Angle>
2.988

> <Pdih>
6.930

> <Idih>
0.001

> <Tether>
0.000

$$$$
VeraChem MOL file


 22 21  0  0  0  0  0  0  0  0999 V2000     
   17.0597   20.6965   22.1159 C   0  0  0  0  0  0  0  0  0  0  0  0
   16.6843   20.9915   23.2333 O   0  5  0  0  0  0  0  0  0  0  0  0
   16.4386   20.9619   21.1058 O   0  0  0  0  0  0  0  0  0  0  0  0
   18.3707   19.9314   21.9748 C   0  0  0  0  0  0  0  0  0  0  0  0
   19.0398   20.2707   22.7734 H   0  0  0  0  0  0  0  0  0  0  0  0
   18.8279   20.2117   21.0184 H   0  0  0  0  0  0  0  0  0  0  0  0
   18.1801   18.3953   22.0483 C   0  0  0  0  0  0  0  0  0  0  0  0
   17.7964   18.1261   23.0421 H   0  0  0  0  0  0  0  0  0  0  0  0
   17.4027   18.1024   21.3292 H   0  0  0  0  0  0  0  0  0  0  0  0
   19.4612   17.5775   21.7472 C   0  0  0  0  0  0  0  0  0  0  0  0
   19.7962   17.7662   20.7180 H   0  0  0  0  0  0  0  0  0  0  0  0
   19.1897   16.5135   21.7820 H   0  0  0  0  0  0  0  0  0  0  0  0
   20.6254   17.8112   22.7430 C   0  0  0  0  0  0  0  0  0  0  0  0
   20.2293   18.1048   23.7247 H   0  0  0  0  0  0  0  0  0  0  0  0
   21.1480   16.8572   22.8974 H   0  0  0  0  0  0  0  0  0  0  0  0
   21.6580   18.8494   22.2462 C   0  0  0  0  0  0  0  0  0  0  0  0
   21.1732   19.8131   22.0499 H   0  0  0  0  0  0  0  0  0  0  0  0
   22.0870   18.5133   21.2921 H   0  0  0  0  0  0  0  0  0  0  0  0
   22.7925   19.0529   23.2702 C   0  0  0  0  0  0  0  0  0  0  0  0
   22.3967   19.4204   24.2261 H   0  0  0  0  0  0  0  0  0  0  0  0
   23.5204   19.7866   22.9004 H   0  0  0  0  0  0  0  0  0  0  0  0
   23.3256   18.1118   23.4587 H   0  0  0  0  0  0  0  0  0  0  0  0
  1  2  1  0  0  0  0
  1  3  2  0  0  0  0
  1  4  1  0  0  0  0
  4  5  1  0  0  0  0
  4  6  1  0  0  0  0
  4  7  1  0  0  0  0
  7  8  1  0  0  0  0
  7  9  1  0  0  0  0
  7 10  1  0  0  0  0
 10 11  1  0  0  0  0
 10 12  1  0  0  0  0
 10 13  1  0  0  0  0
 13 14  1  0  0  0  0
 13 15  1  0  0  0  0
 13 16  1  0  0  0  0
 16 17  1  0  0  0  0
 16 18  1  0  0  0  0
 16 19  1  0  0  0  0
 19 20  1  0  0  0  0
 19 21  1  0  0  0  0
 19 22  1  0  0  0  0
M  END
> <VConfSearch Rank>
833

> <Conf_Id>
6

> <Delta U+W>
2.118

> <U+W>
-51.042

> <U>
10.045

> <W>
-61.086

> <W(PB)>
-63.356

> <W(SA)>
2.270

> <Valence>
10.100

> <Coulomb>
-0.883

> <VdW>
0.828

> <VdW6>
-8.177

> <VdW12>
9.004

> <Bond>
0.182

> <Angle>
2.988

> <Pdih>
6.930

> <Idih>
0.001

> <Tether>
0.000

$$$$
VeraChem MOL file


 22 21  0  0  0  0  0  0  0  0999 V2000     
   17.3927   17.4733   22.4696 C   0  0  0  0  0  0  0  0  0  0  0  0
   16.5468   18.0558   23.1198 O   0  5  0  0  0  0  0  0  0  0  0  0
   17.9068   16.4295   22.8206 O   0  0  0  0  0  0  0  0  0  0  0  0
   17.7801   18.0440   21.1066 C   0  0  0  0  0  0  0  0  0  0  0  0
   16.8749   18.0092   20.4895 H   0  0  0  0  0  0  0  0  0  0  0  0
   18.5084   17.3742   20.6335 H   0  0  0  0  0  0  0  0  0  0  0  0
   18.3224   19.5009   21.1269 C   0  0  0  0  0  0  0  0  0  0  0  0
   18.2142   19.9168   20.1161 H   0  0  0  0  0  0  0  0  0  0  0  0
   17.6956   20.1250   21.7789 H   0  0  0  0  0  0  0  0  0  0  0  0
   19.8106   19.6345   21.5347 C   0  0  0  0  0  0  0  0  0  0  0  0
   20.1200   20.6746   21.3633 H   0  0  0  0  0  0  0  0  0  0  0  0
   20.4321   19.0149   20.8739 H   0  0  0  0  0  0  0  0  0  0  0  0
   20.0954   19.2686   23.0090 C   0  0  0  0  0  0  0  0  0  0  0  0
   19.4025   19.8133   23.6649 H   0  0  0  0  0  0  0  0  0  0  0  0
   19.9153   18.1981   23.1693 H   0  0  0  0  0  0  0  0  0  0  0  0
   21.5500   19.5964   23.4074 C   0  0  0  0  0  0  0  0  0  0  0  0
   21.7429   20.6681   23.2605 H   0  0  0  0  0  0  0  0  0  0  0  0
   22.2444   19.0537   22.7510 H   0  0  0  0  0  0  0  0  0  0  0  0
   21.8346   19.2221   24.8758 C   0  0  0  0  0  0  0  0  0  0  0  0
   21.1741   19.7748   25.5567 H   0  0  0  0  0  0  0  0  0  0  0  0
   22.8726   19.4605   25.1420 H   0  0  0  0  0  0  0  0  0  0  0  0
   21.6791   18.1483   25.0442 H   0  0  0  0  0  0  0  0  0  0  0  0
  1  2  1  0  0  0  0
  1  3  2  0  0  0  0
  1  4  1  0  0  0  0
  4  5  1  0  0  0  0
  4  6  1  0  0  0  0
  4  7  1  0  0  0  0
  7  8  1  0  0  0  0
  7  9  1  0  0  0  0
  7 10  1  0  0  0  0
 10 11  1  0  0  0  0
 10 12  1  0  0  0  0
 10 13  1  0  0  0  0
 13 14  1  0  0  0  0
 13 15  1  0  0  0  0
 13 16  1  0  0  0  0
 16 17  1  0  0  0  0
 16 18  1  0  0  0  0
 16 19  1  0  0  0  0
 19 20  1  0  0  0  0
 19 21  1  0  0  0  0
 19 22  1  0  0  0  0
M  END
> <VConfSearch Rank>
834

> <Conf_Id>
8

> <Delta U+W>
1.886

> <U+W>
-51.274

> <U>
11.237

> <W>
-62.510

> <W(PB)>
-64.777

> <W(SA)>
2.267

> <Valence>
9.029

> <Coulomb>
1.667

> <VdW>
0.540

> <VdW6>
-8.825

> <VdW12>
9.365

> <Bond>
0.186

> <Angle>
3.195

> <Pdih>
5.642

> <Idih>
0.007

> <Tether>
0.000

$$$$
VeraChem MOL file


 22 21  0  0  0  0  0  0  0  0999 V2000     
   17.1675   18.8794   20.6555 C   0  0  0  0  0  0  0  0  0  0  0  0
   17.3328   20.0554   20.3977 O   0  5  0  0  0  0  0  0  0  0  0  0
   16.0928   18.4040   20.9660 O   0  0  0  0  0  0  0  0  0  0  0  0
   18.3669   17.9410   20.5553 C   0  0  0  0  0  0  0  0  0  0  0  0
   19.1670   18.4505   20.0067 H   0  0  0  0  0  0  0  0  0  0  0  0
   18.0624   17.0889   19.9365 H   0  0  0  0  0  0  0  0  0  0  0  0
   18.8834   17.4211   21.9250 C   0  0  0  0  0  0  0  0  0  0  0  0
   18.0794   16.8491   22.4085 H   0  0  0  0  0  0  0  0  0  0  0  0
   19.7050   16.7123   21.7549 H   0  0  0  0  0  0  0  0  0  0  0  0
   19.3589   18.5286   22.8976 C   0  0  0  0  0  0  0  0  0  0  0  0
   19.6077   18.0540   23.8551 H   0  0  0  0  0  0  0  0  0  0  0  0
   18.5324   19.2231   23.1016 H   0  0  0  0  0  0  0  0  0  0  0  0
   20.5852   19.3191   22.3793 C   0  0  0  0  0  0  0  0  0  0  0  0
   21.4074   18.6261   22.1554 H   0  0  0  0  0  0  0  0  0  0  0  0
   20.3248   19.8131   21.4342 H   0  0  0  0  0  0  0  0  0  0  0  0
   21.0769   20.4053   23.3644 C   0  0  0  0  0  0  0  0  0  0  0  0
   20.2518   21.0910   23.6021 H   0  0  0  0  0  0  0  0  0  0  0  0
   21.8473   21.0090   22.8653 H   0  0  0  0  0  0  0  0  0  0  0  0
   21.6685   19.8292   24.6694 C   0  0  0  0  0  0  0  0  0  0  0  0
   20.9032   19.3181   25.2664 H   0  0  0  0  0  0  0  0  0  0  0  0
   22.0884   20.6334   25.2875 H   0  0  0  0  0  0  0  0  0  0  0  0
   22.4728   19.1139   24.4540 H   0  0  0  0  0  0  0  0  0  0  0  0
  1  2  1  0  0  0  0
  1  3  2  0  0  0  0
  1  4  1  0  0  0  0
  4  5  1  0  0  0  0
  4  6  1  0  0  0  0
  4  7  1  0  0  0  0
  7  8  1  0  0  0  0
  7  9  1  0  0  0  0
  7 10  1  0  0  0  0
 10 11  1  0  0  0  0
 10 12  1  0  0  0  0
 10 13  1  0  0  0  0
 13 14  1  0  0  0  0
 13 15  1  0  0  0  0
 13 16  1  0  0  0  0
 16 17  1  0  0  0  0
 16 18  1  0  0  0  0
 16 19  1  0  0  0  0
 19 20  1  0  0  0  0
 19 21  1  0  0  0  0
 19 22  1  0  0  0  0
M  END
> <VConfSearch Rank>
835

> <Conf_Id>
93

> <Delta U+W>
1.836

> <U+W>
-51.323

> <U>
10.427

> <W>
-61.751

> <W(PB)>
-63.980

> <W(SA)>
2.230

> <Valence>
8.446

> <Coulomb>
1.306

> <VdW>
0.676

> <VdW6>
-8.928

> <VdW12>
9.604

> <Bond>
0.209

> <Angle>
3.066

> <Pdih>
5.170

> <Idih>
0.001

> <Tether>
0.000

$$$$
VeraChem MOL file


 22 21  0  0  0  0  0  0  0  0999 V2000     
   20.4750   21.1538   20.2516 C   0  0  0  0  0  0  0  0  0  0  0  0
   21.0738   22.1954   20.4352 O   0  5  0  0  0  0  0  0  0  0  0  0
   19.3409   21.0979   19.8188 O   0  0  0  0  0  0  0  0  0  0  0  0
   21.1998   19.8450   20.5534 C   0  0  0  0  0  0  0  0  0  0  0  0
   22.1750   19.8908   20.0549 H   0  0  0  0  0  0  0  0  0  0  0  0
   20.6506   19.0223   20.0820 H   0  0  0  0  0  0  0  0  0  0  0  0
   21.4107   19.5697   22.0676 C   0  0  0  0  0  0  0  0  0  0  0  0
   21.9866   18.6423   22.1886 H   0  0  0  0  0  0  0  0  0  0  0  0
   22.0314   20.3736   22.4869 H   0  0  0  0  0  0  0  0  0  0  0  0
   20.1040   19.4695   22.8931 C   0  0  0  0  0  0  0  0  0  0  0  0
   19.5379   20.4071   22.8067 H   0  0  0  0  0  0  0  0  0  0  0  0
   20.3788   19.3704   23.9507 H   0  0  0  0  0  0  0  0  0  0  0  0
   19.2037   18.2795   22.4799 C   0  0  0  0  0  0  0  0  0  0  0  0
   18.9102   18.3953   21.4285 H   0  0  0  0  0  0  0  0  0  0  0  0
   19.7723   17.3420   22.5459 H   0  0  0  0  0  0  0  0  0  0  0  0
   17.9133   18.1635   23.3244 C   0  0  0  0  0  0  0  0  0  0  0  0
   17.2696   17.3932   22.8778 H   0  0  0  0  0  0  0  0  0  0  0  0
   17.3504   19.1057   23.2726 H   0  0  0  0  0  0  0  0  0  0  0  0
   18.1759   17.7935   24.8006 C   0  0  0  0  0  0  0  0  0  0  0  0
   18.7137   18.5924   25.3257 H   0  0  0  0  0  0  0  0  0  0  0  0
   18.7678   16.8720   24.8754 H   0  0  0  0  0  0  0  0  0  0  0  0
   17.2278   17.6297   25.3290 H   0  0  0  0  0  0  0  0  0  0  0  0
  1  2  1  0  0  0  0
  1  3  2  0  0  0  0
  1  4  1  0  0  0  0
  4  5  1  0  0  0  0
  4  6  1  0  0  0  0
  4  7  1  0  0  0  0
  7  8  1  0  0  0  0
  7  9  1  0  0  0  0
  7 10  1  0  0  0  0
 10 11  1  0  0  0  0
 10 12  1  0  0  0  0
 10 13  1  0  0  0  0
 13 14  1  0  0  0  0
 13 15  1  0  0  0  0
 13 16  1  0  0  0  0
 16 17  1  0  0  0  0
 16 18  1  0  0  0  0
 16 19  1  0  0  0  0
 19 20  1  0  0  0  0
 19 21  1  0  0  0  0
 19 22  1  0  0  0  0
M  END
> <VConfSearch Rank>
836

> <Conf_Id>
70

> <Delta U+W>
1.803

> <U+W>
-51.356

> <U>
10.428

> <W>
-61.784

> <W(PB)>
-64.014

> <W(SA)>
2.230

> <Valence>
8.445

> <Coulomb>
1.306

> <VdW>
0.676

> <VdW6>
-8.929

> <VdW12>
9.605

> <Bond>
0.209

> <Angle>
3.066

> <Pdih>
5.170

> <Idih>
0.001

> <Tether>
0.000

$$$$
VeraChem MOL file


 22 21  0  0  0  0  0  0  0  0999 V2000     
   20.4453   21.2327   20.0143 C   0  0  0  0  0  0  0  0  0  0  0  0
   19.5953   21.0481   19.1657 O   0  5  0  0  0  0  0  0  0  0  0  0
   21.6390   21.1671   19.7958 O   0  0  0  0  0  0  0  0  0  0  0  0
   19.9867   21.5870   21.4262 C   0  0  0  0  0  0  0  0  0  0  0  0
   19.1984   22.3435   21.3353 H   0  0  0  0  0  0  0  0  0  0  0  0
   20.8214   22.0608   21.9569 H   0  0  0  0  0  0  0  0  0  0  0  0
   19.4529   20.3775   22.2368 C   0  0  0  0  0  0  0  0  0  0  0  0
   19.0268   20.7412   23.1815 H   0  0  0  0  0  0  0  0  0  0  0  0
   18.6324   19.9089   21.6774 H   0  0  0  0  0  0  0  0  0  0  0  0
   20.5561   19.3360   22.5415 C   0  0  0  0  0  0  0  0  0  0  0  0
   21.4033   19.8438   23.0224 H   0  0  0  0  0  0  0  0  0  0  0  0
   20.9410   18.9144   21.6026 H   0  0  0  0  0  0  0  0  0  0  0  0
   20.0822   18.1889   23.4652 C   0  0  0  0  0  0  0  0  0  0  0  0
   20.9521   17.5709   23.7266 H   0  0  0  0  0  0  0  0  0  0  0  0
   19.7041   18.6074   24.4079 H   0  0  0  0  0  0  0  0  0  0  0  0
   19.0020   17.2888   22.8241 C   0  0  0  0  0  0  0  0  0  0  0  0
   19.3601   16.9127   21.8558 H   0  0  0  0  0  0  0  0  0  0  0  0
   18.0931   17.8715   22.6253 H   0  0  0  0  0  0  0  0  0  0  0  0
   18.6446   16.0976   23.7358 C   0  0  0  0  0  0  0  0  0  0  0  0
   19.5247   15.4691   23.9250 H   0  0  0  0  0  0  0  0  0  0  0  0
   17.8746   15.4702   23.2683 H   0  0  0  0  0  0  0  0  0  0  0  0
   18.2574   16.4457   24.7024 H   0  0  0  0  0  0  0  0  0  0  0  0
  1  2  1  0  0  0  0
  1  3  2  0  0  0  0
  1  4  1  0  0  0  0
  4  5  1  0  0  0  0
  4  6  1  0  0  0  0
  4  7  1  0  0  0  0
  7  8  1  0  0  0  0
  7  9  1  0  0  0  0
  7 10  1  0  0  0  0
 10 11  1  0  0  0  0
 10 12  1  0  0  0  0
 10 13  1  0  0  0  0
 13 14  1  0  0  0  0
 13 15  1  0  0  0  0
 13 16  1  0  0  0  0
 16 17  1  0  0  0  0
 16 18  1  0  0  0  0
 16 19  1  0  0  0  0
 19 20  1  0  0  0  0
 19 21  1  0  0  0  0
 19 22  1  0  0  0  0
M  END
> <VConfSearch Rank>
837

> <Conf_Id>
85

> <Delta U+W>
0.707

> <U+W>
-52.452

> <U>
8.925

> <W>
-61.378

> <W(PB)>
-63.661

> <W(SA)>
2.283

> <Valence>
7.881

> <Coulomb>
0.349

> <VdW>
0.695

> <VdW6>
-8.049

> <VdW12>
8.743

> <Bond>
0.156

> <Angle>
2.660

> <Pdih>
5.064

> <Idih>
0.001

> <Tether>
0.000

$$$$
VeraChem MOL file


 22 21  0  0  0  0  0  0  0  0999 V2000     
   21.4668   20.3772   19.8690 C   0  0  0  0  0  0  0  0  0  0  0  0
   20.7101   20.9558   19.1144 O   0  5  0  0  0  0  0  0  0  0  0  0
   22.4859   20.8720   20.3089 O   0  0  0  0  0  0  0  0  0  0  0  0
   21.1329   18.9426   20.2690 C   0  0  0  0  0  0  0  0  0  0  0  0
   22.0509   18.3524   20.1648 H   0  0  0  0  0  0  0  0  0  0  0  0
   20.4112   18.5367   19.5499 H   0  0  0  0  0  0  0  0  0  0  0  0
   20.5875   18.7990   21.7139 C   0  0  0  0  0  0  0  0  0  0  0  0
   20.5292   17.7306   21.9565 H   0  0  0  0  0  0  0  0  0  0  0  0
   21.2983   19.2516   22.4191 H   0  0  0  0  0  0  0  0  0  0  0  0
   19.1913   19.4400   21.8895 C   0  0  0  0  0  0  0  0  0  0  0  0
   18.4690   18.9237   21.2427 H   0  0  0  0  0  0  0  0  0  0  0  0
   19.2258   20.4811   21.5404 H   0  0  0  0  0  0  0  0  0  0  0  0
   18.6696   19.4388   23.3484 C   0  0  0  0  0  0  0  0  0  0  0  0
   19.3376   20.0323   23.9875 H   0  0  0  0  0  0  0  0  0  0  0  0
   17.7058   19.9659   23.3542 H   0  0  0  0  0  0  0  0  0  0  0  0
   18.4525   18.0317   23.9590 C   0  0  0  0  0  0  0  0  0  0  0  0
   18.2331   17.3022   23.1673 H   0  0  0  0  0  0  0  0  0  0  0  0
   17.5618   18.0616   24.6018 H   0  0  0  0  0  0  0  0  0  0  0  0
   19.6436   17.5499   24.8170 C   0  0  0  0  0  0  0  0  0  0  0  0
   20.5676   17.4821   24.2318 H   0  0  0  0  0  0  0  0  0  0  0  0
   19.4381   16.5561   25.2354 H   0  0  0  0  0  0  0  0  0  0  0  0
   19.8234   18.2360   25.6549 H   0  0  0  0  0  0  0  0  0  0  0  0
  1  2  1  0  0  0  0
  1  3  2  0  0  0  0
  1  4  1  0  0  0  0
  4  5  1  0  0  0  0
  4  6  1  0  0  0  0
  4  7  1  0  0  0  0
  7  8  1  0  0  0  0
  7  9  1  0  0  0  0
  7 10  1  0  0  0  0
 10 11  1  0  0  0  0
 10 12  1  0  0  0  0
 10 13  1  0  0  0  0
 13 14  1  0  0  0  0
 13 15  1  0  0  0  0
 13 16  1  0  0  0  0
 16 17  1  0  0  0  0
 16 18  1  0  0  0  0
 16 19  1  0  0  0  0
 19 20  1  0  0  0  0
 19 21  1  0  0  0  0
 19 22  1  0  0  0  0
M  END
> <VConfSearch Rank>
838

> <Conf_Id>
82

> <Delta U+W>
3.438

> <U+W>
-49.721

> <U>
11.773

> <W>
-61.495

> <W(PB)>
-63.749

> <W(SA)>
2.254

> <Valence>
10.419

> <Coulomb>
0.565

> <VdW>
0.789

> <VdW6>
-8.847

> <VdW12>
9.636

> <Bond>
0.200

> <Angle>
3.187

> <Pdih>
7.032

> <Idih>
0.001

> <Tether>
0.000

$$$$
VeraChem MOL file


 22 21  0  0  0  0  0  0  0  0999 V2000     
   16.7392   18.0929   22.9466 C   0  0  0  0  0  0  0  0  0  0  0  0
   16.5804   17.9863   24.1467 O   0  5  0  0  0  0  0  0  0  0  0  0
   15.9717   18.6898   22.2175 O   0  0  0  0  0  0  0  0  0  0  0  0
   17.9572   17.4200   22.3196 C   0  0  0  0  0  0  0  0  0  0  0  0
   17.7814   17.3092   21.2427 H   0  0  0  0  0  0  0  0  0  0  0  0
   18.0219   16.4080   22.7362 H   0  0  0  0  0  0  0  0  0  0  0  0
   19.2926   18.1682   22.5699 C   0  0  0  0  0  0  0  0  0  0  0  0
   19.4326   18.3137   23.6500 H   0  0  0  0  0  0  0  0  0  0  0  0
   20.1156   17.5319   22.2212 H   0  0  0  0  0  0  0  0  0  0  0  0
   19.3565   19.5312   21.8425 C   0  0  0  0  0  0  0  0  0  0  0  0
   18.4707   20.1240   22.1085 H   0  0  0  0  0  0  0  0  0  0  0  0
   19.3018   19.3685   20.7575 H   0  0  0  0  0  0  0  0  0  0  0  0
   20.6153   20.3712   22.1747 C   0  0  0  0  0  0  0  0  0  0  0  0
   20.5196   21.3307   21.6483 H   0  0  0  0  0  0  0  0  0  0  0  0
   20.6308   20.6189   23.2450 H   0  0  0  0  0  0  0  0  0  0  0  0
   21.9580   19.7231   21.7541 C   0  0  0  0  0  0  0  0  0  0  0  0
   22.6358   20.5145   21.4056 H   0  0  0  0  0  0  0  0  0  0  0  0
   21.8058   19.0525   20.8972 H   0  0  0  0  0  0  0  0  0  0  0  0
   22.6578   18.9694   22.9070 C   0  0  0  0  0  0  0  0  0  0  0  0
   22.8800   19.6497   23.7395 H   0  0  0  0  0  0  0  0  0  0  0  0
   23.6071   18.5385   22.5634 H   0  0  0  0  0  0  0  0  0  0  0  0
   22.0401   18.1516   23.2949 H   0  0  0  0  0  0  0  0  0  0  0  0
  1  2  1  0  0  0  0
  1  3  2  0  0  0  0
  1  4  1  0  0  0  0
  4  5  1  0  0  0  0
  4  6  1  0  0  0  0
  4  7  1  0  0  0  0
  7  8  1  0  0  0  0
  7  9  1  0  0  0  0
  7 10  1  0  0  0  0
 10 11  1  0  0  0  0
 10 12  1  0  0  0  0
 10 13  1  0  0  0  0
 13 14  1  0  0  0  0
 13 15  1  0  0  0  0
 13 16  1  0  0  0  0
 16 17  1  0  0  0  0
 16 18  1  0  0  0  0
 16 19  1  0  0  0  0
 19 20  1  0  0  0  0
 19 21  1  0  0  0  0
 19 22  1  0  0  0  0
M  END
> <VConfSearch Rank>
839

> <Conf_Id>
94

> <Delta U+W>
3.471

> <U+W>
-49.688

> <U>
11.773

> <W>
-61.461

> <W(PB)>
-63.710

> <W(SA)>
2.248

> <Valence>
10.419

> <Coulomb>
0.566

> <VdW>
0.789

> <VdW6>
-8.847

> <VdW12>
9.636

> <Bond>
0.200

> <Angle>
3.187

> <Pdih>
7.032

> <Idih>
0.001

> <Tether>
0.000

$$$$
VeraChem MOL file


 22 21  0  0  0  0  0  0  0  0999 V2000     
   21.1944   16.2115   21.4137 C   0  0  0  0  0  0  0  0  0  0  0  0
   20.7949   15.3130   20.6997 O   0  5  0  0  0  0  0  0  0  0  0  0
   21.9790   16.0466   22.3269 O   0  0  0  0  0  0  0  0  0  0  0  0
   20.6673   17.6195   21.1619 C   0  0  0  0  0  0  0  0  0  0  0  0
   20.4828   17.7274   20.0864 H   0  0  0  0  0  0  0  0  0  0  0  0
   21.4615   18.3259   21.4288 H   0  0  0  0  0  0  0  0  0  0  0  0
   19.3741   17.9279   21.9600 C   0  0  0  0  0  0  0  0  0  0  0  0
   18.6264   17.1557   21.7327 H   0  0  0  0  0  0  0  0  0  0  0  0
   19.5778   17.8459   23.0359 H   0  0  0  0  0  0  0  0  0  0  0  0
   18.7648   19.3155   21.6376 C   0  0  0  0  0  0  0  0  0  0  0  0
   17.8297   19.4322   22.2011 H   0  0  0  0  0  0  0  0  0  0  0  0
   18.4776   19.3387   20.5777 H   0  0  0  0  0  0  0  0  0  0  0  0
   19.6907   20.5265   21.9260 C   0  0  0  0  0  0  0  0  0  0  0  0
   20.5507   20.4971   21.2441 H   0  0  0  0  0  0  0  0  0  0  0  0
   19.1478   21.4487   21.6784 H   0  0  0  0  0  0  0  0  0  0  0  0
   20.2082   20.6285   23.3819 C   0  0  0  0  0  0  0  0  0  0  0  0
   20.8696   21.5023   23.4582 H   0  0  0  0  0  0  0  0  0  0  0  0
   20.8288   19.7556   23.6248 H   0  0  0  0  0  0  0  0  0  0  0  0
   19.0766   20.7695   24.4228 C   0  0  0  0  0  0  0  0  0  0  0  0
   18.4332   21.6277   24.1896 H   0  0  0  0  0  0  0  0  0  0  0  0
   19.4943   20.9219   25.4263 H   0  0  0  0  0  0  0  0  0  0  0  0
   18.4511   19.8686   24.4559 H   0  0  0  0  0  0  0  0  0  0  0  0
  1  2  1  0  0  0  0
  1  3  2  0  0  0  0
  1  4  1  0  0  0  0
  4  5  1  0  0  0  0
  4  6  1  0  0  0  0
  4  7  1  0  0  0  0
  7  8  1  0  0  0  0
  7  9  1  0  0  0  0
  7 10  1  0  0  0  0
 10 11  1  0  0  0  0
 10 12  1  0  0  0  0
 10 13  1  0  0  0  0
 13 14  1  0  0  0  0
 13 15  1  0  0  0  0
 13 16  1  0  0  0  0
 16 17  1  0  0  0  0
 16 18  1  0  0  0  0
 16 19  1  0  0  0  0
 19 20  1  0  0  0  0
 19 21  1  0  0  0  0
 19 22  1  0  0  0  0
M  END
> <VConfSearch Rank>
840

> <Conf_Id>
56

> <Delta U+W>
0.853

> <U+W>
-52.307

> <U>
8.874

> <W>
-61.181

> <W(PB)>
-63.413

> <W(SA)>
2.232

> <Valence>
8.479

> <Coulomb>
-0.357

> <VdW>
0.753

> <VdW6>
-9.081

> <VdW12>
9.833

> <Bond>
0.221

> <Angle>
3.208

> <Pdih>
5.050

> <Idih>
0.000

> <Tether>
0.000

$$$$
VeraChem MOL file


 22 21  0  0  0  0  0  0  0  0999 V2000     
   19.6332   18.4885   18.1344 C   0  0  0  0  0  0  0  0  0  0  0  0
   20.5009   17.6368   18.1253 O   0  5  0  0  0  0  0  0  0  0  0  0
   19.0727   18.8753   17.1284 O   0  0  0  0  0  0  0  0  0  0  0  0
   19.2053   19.1219   19.4593 C   0  0  0  0  0  0  0  0  0  0  0  0
   18.1274   18.9540   19.5689 H   0  0  0  0  0  0  0  0  0  0  0  0
   19.3537   20.2042   19.3673 H   0  0  0  0  0  0  0  0  0  0  0  0
   19.9484   18.5955   20.7159 C   0  0  0  0  0  0  0  0  0  0  0  0
   19.8008   17.5098   20.7986 H   0  0  0  0  0  0  0  0  0  0  0  0
   21.0282   18.7613   20.5969 H   0  0  0  0  0  0  0  0  0  0  0  0
   19.4558   19.2866   22.0059 C   0  0  0  0  0  0  0  0  0  0  0  0
   18.3762   19.1195   22.1227 H   0  0  0  0  0  0  0  0  0  0  0  0
   19.6043   20.3719   21.9208 H   0  0  0  0  0  0  0  0  0  0  0  0
   20.1964   18.7616   23.2546 C   0  0  0  0  0  0  0  0  0  0  0  0
   20.0482   17.6763   23.3401 H   0  0  0  0  0  0  0  0  0  0  0  0
   21.2761   18.9286   23.1383 H   0  0  0  0  0  0  0  0  0  0  0  0
   19.7046   19.4518   24.5442 C   0  0  0  0  0  0  0  0  0  0  0  0
   18.6252   19.2852   24.6650 H   0  0  0  0  0  0  0  0  0  0  0  0
   19.8530   20.5375   24.4631 H   0  0  0  0  0  0  0  0  0  0  0  0
   20.4466   18.9248   25.7888 C   0  0  0  0  0  0  0  0  0  0  0  0
   20.2893   17.8453   25.9121 H   0  0  0  0  0  0  0  0  0  0  0  0
   20.0847   19.4259   26.6960 H   0  0  0  0  0  0  0  0  0  0  0  0
   21.5264   19.1070   25.7088 H   0  0  0  0  0  0  0  0  0  0  0  0
  1  2  1  0  0  0  0
  1  3  2  0  0  0  0
  1  4  1  0  0  0  0
  4  5  1  0  0  0  0
  4  6  1  0  0  0  0
  4  7  1  0  0  0  0
  7  8  1  0  0  0  0
  7  9  1  0  0  0  0
  7 10  1  0  0  0  0
 10 11  1  0  0  0  0
 10 12  1  0  0  0  0
 10 13  1  0  0  0  0
 13 14  1  0  0  0  0
 13 15  1  0  0  0  0
 13 16  1  0  0  0  0
 16 17  1  0  0  0  0
 16 18  1  0  0  0  0
 16 19  1  0  0  0  0
 19 20  1  0  0  0  0
 19 21  1  0  0  0  0
 19 22  1  0  0  0  0
M  END
> <VConfSearch Rank>
841

> <Conf_Id>
0

> <Delta U+W>
0.000

> <U+W>
-53.159

> <U>
6.763

> <W>
-59.922

> <W(PB)>
-62.256

> <W(SA)>
2.334

> <Valence>
7.600

> <Coulomb>
-2.139

> <VdW>
1.302

> <VdW6>
-6.786

> <VdW12>
8.088

> <Bond>
0.134

> <Angle>
2.720

> <Pdih>
4.746

> <Idih>
0.000

> <Tether>
0.000

$$$$
VeraChem MOL file


 22 21  0  0  0  0  0  0  0  0999 V2000     
   21.0559   22.8007   22.1275 C   0  0  0  0  0  0  0  0  0  0  0  0
   21.9644   23.0364   22.8993 O   0  5  0  0  0  0  0  0  0  0  0  0
   20.1955   23.6071   21.8345 O   0  0  0  0  0  0  0  0  0  0  0  0
   20.9786   21.4090   21.5100 C   0  0  0  0  0  0  0  0  0  0  0  0
   22.0017   21.0342   21.3854 H   0  0  0  0  0  0  0  0  0  0  0  0
   20.5441   21.5047   20.5076 H   0  0  0  0  0  0  0  0  0  0  0  0
   20.1464   20.4185   22.3611 C   0  0  0  0  0  0  0  0  0  0  0  0
   20.5866   20.3440   23.3651 H   0  0  0  0  0  0  0  0  0  0  0  0
   19.1291   20.8144   22.4874 H   0  0  0  0  0  0  0  0  0  0  0  0
   20.0833   19.0176   21.7149 C   0  0  0  0  0  0  0  0  0  0  0  0
   21.1018   18.6253   21.5889 H   0  0  0  0  0  0  0  0  0  0  0  0
   19.6439   19.0959   20.7109 H   0  0  0  0  0  0  0  0  0  0  0  0
   19.2531   18.0324   22.5655 C   0  0  0  0  0  0  0  0  0  0  0  0
   19.6922   17.9539   23.5696 H   0  0  0  0  0  0  0  0  0  0  0  0
   18.2345   18.4244   22.6917 H   0  0  0  0  0  0  0  0  0  0  0  0
   19.1896   16.6321   21.9204 C   0  0  0  0  0  0  0  0  0  0  0  0
   20.2067   16.2358   21.7943 H   0  0  0  0  0  0  0  0  0  0  0  0
   18.7491   16.7063   20.9164 H   0  0  0  0  0  0  0  0  0  0  0  0
   18.3597   15.6513   22.7727 C   0  0  0  0  0  0  0  0  0  0  0  0
   17.3277   16.0077   22.8886 H   0  0  0  0  0  0  0  0  0  0  0  0
   18.7963   15.5338   23.7732 H   0  0  0  0  0  0  0  0  0  0  0  0
   18.3251   14.6613   22.2997 H   0  0  0  0  0  0  0  0  0  0  0  0
  1  2  1  0  0  0  0
  1  3  2  0  0  0  0
  1  4  1  0  0  0  0
  4  5  1  0  0  0  0
  4  6  1  0  0  0  0
  4  7  1  0  0  0  0
  7  8  1  0  0  0  0
  7  9  1  0  0  0  0
  7 10  1  0  0  0  0
 10 11  1  0  0  0  0
 10 12  1  0  0  0  0
 10 13  1  0  0  0  0
 13 14  1  0  0  0  0
 13 15  1  0  0  0  0
 13 16  1  0  0  0  0
 16 17  1  0  0  0  0
 16 18  1  0  0  0  0
 16 19  1  0  0  0  0
 19 20  1  0  0  0  0
 19 21  1  0  0  0  0
 19 22  1  0  0  0  0
M  END
> <VConfSearch Rank>
842

> <Conf_Id>
10

> <Delta U+W>
-1.291

> <U+W>
-54.451

> <U>
5.779

> <W>
-60.230

> <W(PB)>
-62.557

> <W(SA)>
2.328

> <Valence>
7.101

> <Coulomb>
-2.079

> <VdW>
0.757

> <VdW6>
-6.496

> <VdW12>
7.253

> <Bond>
0.100

> <Angle>
2.262

> <Pdih>
4.738

> <Idih>
0.001

> <Tether>
0.000

$$$$
VeraChem MOL file


 22 21  0  0  0  0  0  0  0  0999 V2000     
   16.6792   16.9070   21.3450 C   0  0  0  0  0  0  0  0  0  0  0  0
   16.8195   15.7128   21.5197 O   0  5  0  0  0  0  0  0  0  0  0  0
   15.6065   17.4746   21.4055 O   0  0  0  0  0  0  0  0  0  0  0  0
   17.9206   17.7429   21.0546 C   0  0  0  0  0  0  0  0  0  0  0  0
   17.6278   18.5714   20.3984 H   0  0  0  0  0  0  0  0  0  0  0  0
   18.6276   17.1196   20.4938 H   0  0  0  0  0  0  0  0  0  0  0  0
   18.5919   18.2896   22.3385 C   0  0  0  0  0  0  0  0  0  0  0  0
   17.8671   18.9002   22.8947 H   0  0  0  0  0  0  0  0  0  0  0  0
   18.8678   17.4489   22.9901 H   0  0  0  0  0  0  0  0  0  0  0  0
   19.8457   19.1320   22.0177 C   0  0  0  0  0  0  0  0  0  0  0  0
   19.5667   19.9727   21.3679 H   0  0  0  0  0  0  0  0  0  0  0  0
   20.5595   18.5151   21.4562 H   0  0  0  0  0  0  0  0  0  0  0  0
   20.5142   19.6723   23.3027 C   0  0  0  0  0  0  0  0  0  0  0  0
   19.7680   20.2275   23.8875 H   0  0  0  0  0  0  0  0  0  0  0  0
   20.8404   18.8326   23.9316 H   0  0  0  0  0  0  0  0  0  0  0  0
   21.7145   20.6069   23.0250 C   0  0  0  0  0  0  0  0  0  0  0  0
   22.0541   21.0369   23.9774 H   0  0  0  0  0  0  0  0  0  0  0  0
   21.3906   21.4516   22.4013 H   0  0  0  0  0  0  0  0  0  0  0  0
   22.9045   19.8900   22.3512 C   0  0  0  0  0  0  0  0  0  0  0  0
   23.7598   20.5716   22.2572 H   0  0  0  0  0  0  0  0  0  0  0  0
   22.6447   19.5426   21.3435 H   0  0  0  0  0  0  0  0  0  0  0  0
   23.2268   19.0230   22.9425 H   0  0  0  0  0  0  0  0  0  0  0  0
  1  2  1  0  0  0  0
  1  3  2  0  0  0  0
  1  4  1  0  0  0  0
  4  5  1  0  0  0  0
  4  6  1  0  0  0  0
  4  7  1  0  0  0  0
  7  8  1  0  0  0  0
  7  9  1  0  0  0  0
  7 10  1  0  0  0  0
 10 11  1  0  0  0  0
 10 12  1  0  0  0  0
 10 13  1  0  0  0  0
 13 14  1  0  0  0  0
 13 15  1  0  0  0  0
 13 16  1  0  0  0  0
 16 17  1  0  0  0  0
 16 18  1  0  0  0  0
 16 19  1  0  0  0  0
 19 20  1  0  0  0  0
 19 21  1  0  0  0  0
 19 22  1  0  0  0  0
M  END
> <VConfSearch Rank>
843

> <Conf_Id>
37

> <Delta U+W>
-0.345

> <U+W>
-53.504

> <U>
6.751

> <W>
-60.255

> <W(PB)>
-62.592

> <W(SA)>
2.336

> <Valence>
7.602

> <Coulomb>
-1.744

> <VdW>
0.894

> <VdW6>
-7.110

> <VdW12>
8.004

> <Bond>
0.131

> <Angle>
2.489

> <Pdih>
4.982

> <Idih>
0.001

> <Tether>
0.000

$$$$
VeraChem MOL file


 22 21  0  0  0  0  0  0  0  0999 V2000     
   23.5383   18.2997   21.4073 C   0  0  0  0  0  0  0  0  0  0  0  0
   23.9766   19.0301   20.5408 O   0  5  0  0  0  0  0  0  0  0  0  0
   23.9751   17.1890   21.6358 O   0  0  0  0  0  0  0  0  0  0  0  0
   22.3611   18.7955   22.2394 C   0  0  0  0  0  0  0  0  0  0  0  0
   22.4507   19.8837   22.3420 H   0  0  0  0  0  0  0  0  0  0  0  0
   22.4499   18.3668   23.2449 H   0  0  0  0  0  0  0  0  0  0  0  0
   20.9898   18.4281   21.6210 C   0  0  0  0  0  0  0  0  0  0  0  0
   20.9215   18.8541   20.6103 H   0  0  0  0  0  0  0  0  0  0  0  0
   20.9217   17.3367   21.5126 H   0  0  0  0  0  0  0  0  0  0  0  0
   19.8149   18.9409   22.4819 C   0  0  0  0  0  0  0  0  0  0  0  0
   19.8966   20.0303   22.5897 H   0  0  0  0  0  0  0  0  0  0  0  0
   19.8845   18.5117   23.4907 H   0  0  0  0  0  0  0  0  0  0  0  0
   18.4484   18.5749   21.8583 C   0  0  0  0  0  0  0  0  0  0  0  0
   18.3547   19.0449   20.8697 H   0  0  0  0  0  0  0  0  0  0  0  0
   18.4106   17.4897   21.6916 H   0  0  0  0  0  0  0  0  0  0  0  0
   17.2429   18.9784   22.7388 C   0  0  0  0  0  0  0  0  0  0  0  0
   17.3298   18.5049   23.7265 H   0  0  0  0  0  0  0  0  0  0  0  0
   16.3253   18.5806   22.2838 H   0  0  0  0  0  0  0  0  0  0  0  0
   17.0924   20.5060   22.9065 C   0  0  0  0  0  0  0  0  0  0  0  0
   17.0338   21.0045   21.9302 H   0  0  0  0  0  0  0  0  0  0  0  0
   17.9367   20.9333   23.4617 H   0  0  0  0  0  0  0  0  0  0  0  0
   16.1758   20.7425   23.4622 H   0  0  0  0  0  0  0  0  0  0  0  0
  1  2  1  0  0  0  0
  1  3  2  0  0  0  0
  1  4  1  0  0  0  0
  4  5  1  0  0  0  0
  4  6  1  0  0  0  0
  4  7  1  0  0  0  0
  7  8  1  0  0  0  0
  7  9  1  0  0  0  0
  7 10  1  0  0  0  0
 10 11  1  0  0  0  0
 10 12  1  0  0  0  0
 10 13  1  0  0  0  0
 13 14  1  0  0  0  0
 13 15  1  0  0  0  0
 13 16  1  0  0  0  0
 16 17  1  0  0  0  0
 16 18  1  0  0  0  0
 16 19  1  0  0  0  0
 19 20  1  0  0  0  0
 19 21  1  0  0  0  0
 19 22  1  0  0  0  0
M  END
> <VConfSearch Rank>
844

> <Conf_Id>
38

> <Delta U+W>
-0.439

> <U+W>
-53.598

> <U>
6.751

> <W>
-60.350

> <W(PB)>
-62.659

> <W(SA)>
2.309

> <Valence>
7.602

> <Coulomb>
-1.744

> <VdW>
0.893

> <VdW6>
-7.110

> <VdW12>
8.004

> <Bond>
0.131

> <Angle>
2.489

> <Pdih>
4.981

> <Idih>
0.001

> <Tether>
0.000

$$$$
VeraChem MOL file


 22 21  0  0  0  0  0  0  0  0999 V2000     
   17.7760   16.7125   20.1001 C   0  0  0  0  0  0  0  0  0  0  0  0
   17.6767   15.5178   20.2982 O   0  5  0  0  0  0  0  0  0  0  0  0
   17.5311   17.2401   19.0332 O   0  0  0  0  0  0  0  0  0  0  0  0
   18.2561   17.5951   21.2467 C   0  0  0  0  0  0  0  0  0  0  0  0
   17.9064   17.1514   22.1866 H   0  0  0  0  0  0  0  0  0  0  0  0
   17.7655   18.5694   21.1442 H   0  0  0  0  0  0  0  0  0  0  0  0
   19.7983   17.7576   21.2730 C   0  0  0  0  0  0  0  0  0  0  0  0
   20.2563   16.7588   21.2774 H   0  0  0  0  0  0  0  0  0  0  0  0
   20.1322   18.2473   20.3479 H   0  0  0  0  0  0  0  0  0  0  0  0
   20.3190   18.5451   22.4992 C   0  0  0  0  0  0  0  0  0  0  0  0
   21.4146   18.4826   22.5023 H   0  0  0  0  0  0  0  0  0  0  0  0
   19.9764   18.0577   23.4221 H   0  0  0  0  0  0  0  0  0  0  0  0
   19.8888   20.0327   22.5029 C   0  0  0  0  0  0  0  0  0  0  0  0
   20.2299   20.5195   21.5791 H   0  0  0  0  0  0  0  0  0  0  0  0
   18.7934   20.0967   22.5029 H   0  0  0  0  0  0  0  0  0  0  0  0
   20.4131   20.8204   23.7263 C   0  0  0  0  0  0  0  0  0  0  0  0
   20.0836   20.3300   24.6527 H   0  0  0  0  0  0  0  0  0  0  0  0
   19.9543   21.8188   23.7242 H   0  0  0  0  0  0  0  0  0  0  0  0
   21.9488   20.9821   23.7408 C   0  0  0  0  0  0  0  0  0  0  0  0
   22.4534   20.0161   23.8656 H   0  0  0  0  0  0  0  0  0  0  0  0
   22.2584   21.6276   24.5730 H   0  0  0  0  0  0  0  0  0  0  0  0
   22.3046   21.4394   22.8084 H   0  0  0  0  0  0  0  0  0  0  0  0
  1  2  1  0  0  0  0
  1  3  2  0  0  0  0
  1  4  1  0  0  0  0
  4  5  1  0  0  0  0
  4  6  1  0  0  0  0
  4  7  1  0  0  0  0
  7  8  1  0  0  0  0
  7  9  1  0  0  0  0
  7 10  1  0  0  0  0
 10 11  1  0  0  0  0
 10 12  1  0  0  0  0
 10 13  1  0  0  0  0
 13 14  1  0  0  0  0
 13 15  1  0  0  0  0
 13 16  1  0  0  0  0
 16 17  1  0  0  0  0
 16 18  1  0  0  0  0
 16 19  1  0  0  0  0
 19 20  1  0  0  0  0
 19 21  1  0  0  0  0
 19 22  1  0  0  0  0
M  END
> <VConfSearch Rank>
845

> <Conf_Id>
60

> <Delta U+W>
0.386

> <U+W>
-52.773

> <U>
7.689

> <W>
-60.463

> <W(PB)>
-62.772

> <W(SA)>
2.309

> <Valence>
8.197

> <Coulomb>
-1.561

> <VdW>
1.053

> <VdW6>
-7.737

> <VdW12>
8.790

> <Bond>
0.181

> <Angle>
2.780

> <Pdih>
5.235

> <Idih>
0.001

> <Tether>
0.000

$$$$
VeraChem MOL file


 22 21  0  0  0  0  0  0  0  0999 V2000     
   22.2956   16.7000   20.4350 C   0  0  0  0  0  0  0  0  0  0  0  0
   23.4343   17.0255   20.7072 O   0  5  0  0  0  0  0  0  0  0  0  0
   22.0027   16.0179   19.4730 O   0  0  0  0  0  0  0  0  0  0  0  0
   21.1702   17.1931   21.3375 C   0  0  0  0  0  0  0  0  0  0  0  0
   21.5632   17.2489   22.3587 H   0  0  0  0  0  0  0  0  0  0  0  0
   20.3761   16.4369   21.3348 H   0  0  0  0  0  0  0  0  0  0  0  0
   20.6028   18.5663   20.8924 C   0  0  0  0  0  0  0  0  0  0  0  0
   21.3947   19.3261   20.9459 H   0  0  0  0  0  0  0  0  0  0  0  0
   20.3094   18.4987   19.8356 H   0  0  0  0  0  0  0  0  0  0  0  0
   19.3775   19.0286   21.7166 C   0  0  0  0  0  0  0  0  0  0  0  0
   18.5910   18.2633   21.6677 H   0  0  0  0  0  0  0  0  0  0  0  0
   18.9671   19.9276   21.2394 H   0  0  0  0  0  0  0  0  0  0  0  0
   19.7130   19.3396   23.1961 C   0  0  0  0  0  0  0  0  0  0  0  0
   20.1204   18.4406   23.6754 H   0  0  0  0  0  0  0  0  0  0  0  0
   20.5007   20.1036   23.2448 H   0  0  0  0  0  0  0  0  0  0  0  0
   18.4889   19.8061   24.0183 C   0  0  0  0  0  0  0  0  0  0  0  0
   18.7804   19.8719   25.0756 H   0  0  0  0  0  0  0  0  0  0  0  0
   17.6940   19.0495   23.9626 H   0  0  0  0  0  0  0  0  0  0  0  0
   17.9351   21.1767   23.5720 C   0  0  0  0  0  0  0  0  0  0  0  0
   18.7219   21.9422   23.5867 H   0  0  0  0  0  0  0  0  0  0  0  0
   17.1330   21.5040   24.2461 H   0  0  0  0  0  0  0  0  0  0  0  0
   17.5176   21.1308   22.5586 H   0  0  0  0  0  0  0  0  0  0  0  0
  1  2  1  0  0  0  0
  1  3  2  0  0  0  0
  1  4  1  0  0  0  0
  4  5  1  0  0  0  0
  4  6  1  0  0  0  0
  4  7  1  0  0  0  0
  7  8  1  0  0  0  0
  7  9  1  0  0  0  0
  7 10  1  0  0  0  0
 10 11  1  0  0  0  0
 10 12  1  0  0  0  0
 10 13  1  0  0  0  0
 13 14  1  0  0  0  0
 13 15  1  0  0  0  0
 13 16  1  0  0  0  0
 16 17  1  0  0  0  0
 16 18  1  0  0  0  0
 16 19  1  0  0  0  0
 19 20  1  0  0  0  0
 19 21  1  0  0  0  0
 19 22  1  0  0  0  0
M  END
> <VConfSearch Rank>
846

> <Conf_Id>
28

> <Delta U+W>
0.351

> <U+W>
-52.808

> <U>
7.689

> <W>
-60.498

> <W(PB)>
-62.768

> <W(SA)>
2.270

> <Valence>
8.197

> <Coulomb>
-1.561

> <VdW>
1.053

> <VdW6>
-7.737

> <VdW12>
8.791

> <Bond>
0.181

> <Angle>
2.780

> <Pdih>
5.235

> <Idih>
0.001

> <Tether>
0.000

$$$$
VeraChem MOL file


 22 21  0  0  0  0  0  0  0  0999 V2000     
   20.6310   20.2099   25.6863 C   0  0  0  0  0  0  0  0  0  0  0  0
   20.7461   21.4144   25.7981 O   0  5  0  0  0  0  0  0  0  0  0  0
   20.0292   19.5147   26.4807 O   0  0  0  0  0  0  0  0  0  0  0  0
   21.2595   19.5363   24.4716 C   0  0  0  0  0  0  0  0  0  0  0  0
   21.5734   18.5275   24.7657 H   0  0  0  0  0  0  0  0  0  0  0  0
   22.1658   20.0930   24.2045 H   0  0  0  0  0  0  0  0  0  0  0  0
   20.2986   19.4643   23.2593 C   0  0  0  0  0  0  0  0  0  0  0  0
   19.3922   18.9209   23.5571 H   0  0  0  0  0  0  0  0  0  0  0  0
   19.9867   20.4810   22.9829 H   0  0  0  0  0  0  0  0  0  0  0  0
   20.9594   18.7729   22.0443 C   0  0  0  0  0  0  0  0  0  0  0  0
   21.2236   17.7388   22.3045 H   0  0  0  0  0  0  0  0  0  0  0  0
   21.9028   19.2856   21.8115 H   0  0  0  0  0  0  0  0  0  0  0  0
   20.0738   18.7774   20.7757 C   0  0  0  0  0  0  0  0  0  0  0  0
   19.8127   19.8116   20.5128 H   0  0  0  0  0  0  0  0  0  0  0  0
   20.6648   18.3837   19.9374 H   0  0  0  0  0  0  0  0  0  0  0  0
   18.7859   17.9355   20.9199 C   0  0  0  0  0  0  0  0  0  0  0  0
   18.1423   18.3592   21.7020 H   0  0  0  0  0  0  0  0  0  0  0  0
   19.0435   16.9148   21.2343 H   0  0  0  0  0  0  0  0  0  0  0  0
   17.9960   17.8797   19.5968 C   0  0  0  0  0  0  0  0  0  0  0  0
   18.5971   17.4246   18.7987 H   0  0  0  0  0  0  0  0  0  0  0  0
   17.7014   18.8865   19.2729 H   0  0  0  0  0  0  0  0  0  0  0  0
   17.0833   17.2815   19.7163 H   0  0  0  0  0  0  0  0  0  0  0  0
  1  2  1  0  0  0  0
  1  3  2  0  0  0  0
  1  4  1  0  0  0  0
  4  5  1  0  0  0  0
  4  6  1  0  0  0  0
  4  7  1  0  0  0  0
  7  8  1  0  0  0  0
  7  9  1  0  0  0  0
  7 10  1  0  0  0  0
 10 11  1  0  0  0  0
 10 12  1  0  0  0  0
 10 13  1  0  0  0  0
 13 14  1  0  0  0  0
 13 15  1  0  0  0  0
 13 16  1  0  0  0  0
 16 17  1  0  0  0  0
 16 18  1  0  0  0  0
 16 19  1  0  0  0  0
 19 20  1  0  0  0  0
 19 21  1  0  0  0  0
 19 22  1  0  0  0  0
M  END
> <VConfSearch Rank>
847

> <Conf_Id>
50

> <Delta U+W>
-0.486

> <U+W>
-53.646

> <U>
7.026

> <W>
-60.672

> <W(PB)>
-62.964

> <W(SA)>
2.292

> <Valence>
7.637

> <Coulomb>
-1.488

> <VdW>
0.877

> <VdW6>
-7.165

> <VdW12>
8.043

> <Bond>
0.134

> <Angle>
2.513

> <Pdih>
4.990

> <Idih>
0.001

> <Tether>
0.000

$$$$
VeraChem MOL file


 22 21  0  0  0  0  0  0  0  0999 V2000     
   19.0900   17.4970   18.9101 C   0  0  0  0  0  0  0  0  0  0  0  0
   18.6915   18.2418   18.0366 O   0  5  0  0  0  0  0  0  0  0  0  0
   18.6494   16.3798   19.0948 O   0  0  0  0  0  0  0  0  0  0  0  0
   20.1894   18.0000   19.8389 C   0  0  0  0  0  0  0  0  0  0  0  0
   20.8369   18.6746   19.2659 H   0  0  0  0  0  0  0  0  0  0  0  0
   20.8011   17.1409   20.1394 H   0  0  0  0  0  0  0  0  0  0  0  0
   19.6351   18.7246   21.0902 C   0  0  0  0  0  0  0  0  0  0  0  0
   19.0180   19.5763   20.7724 H   0  0  0  0  0  0  0  0  0  0  0  0
   18.9755   18.0366   21.6352 H   0  0  0  0  0  0  0  0  0  0  0  0
   20.7705   19.2197   22.0159 C   0  0  0  0  0  0  0  0  0  0  0  0
   21.4606   19.8439   21.4317 H   0  0  0  0  0  0  0  0  0  0  0  0
   21.3559   18.3626   22.3759 H   0  0  0  0  0  0  0  0  0  0  0  0
   20.2658   20.0456   23.2229 C   0  0  0  0  0  0  0  0  0  0  0  0
   21.1365   20.4590   23.7501 H   0  0  0  0  0  0  0  0  0  0  0  0
   19.6838   20.9051   22.8632 H   0  0  0  0  0  0  0  0  0  0  0  0
   19.4191   19.2241   24.2211 C   0  0  0  0  0  0  0  0  0  0  0  0
   19.9811   18.3357   24.5407 H   0  0  0  0  0  0  0  0  0  0  0  0
   18.5023   18.8658   23.7347 H   0  0  0  0  0  0  0  0  0  0  0  0
   19.0358   20.0600   25.4589 C   0  0  0  0  0  0  0  0  0  0  0  0
   18.4485   20.9416   25.1705 H   0  0  0  0  0  0  0  0  0  0  0  0
   19.9307   20.4039   25.9938 H   0  0  0  0  0  0  0  0  0  0  0  0
   18.4325   19.4642   26.1562 H   0  0  0  0  0  0  0  0  0  0  0  0
  1  2  1  0  0  0  0
  1  3  2  0  0  0  0
  1  4  1  0  0  0  0
  4  5  1  0  0  0  0
  4  6  1  0  0  0  0
  4  7  1  0  0  0  0
  7  8  1  0  0  0  0
  7  9  1  0  0  0  0
  7 10  1  0  0  0  0
 10 11  1  0  0  0  0
 10 12  1  0  0  0  0
 10 13  1  0  0  0  0
 13 14  1  0  0  0  0
 13 15  1  0  0  0  0
 13 16  1  0  0  0  0
 16 17  1  0  0  0  0
 16 18  1  0  0  0  0
 16 19  1  0  0  0  0
 19 20  1  0  0  0  0
 19 21  1  0  0  0  0
 19 22  1  0  0  0  0
M  END
> <VConfSearch Rank>
848

> <Conf_Id>
51

> <Delta U+W>
-0.517

> <U+W>
-53.677

> <U>
7.026

> <W>
-60.703

> <W(PB)>
-63.007

> <W(SA)>
2.304

> <Valence>
7.638

> <Coulomb>
-1.488

> <VdW>
0.877

> <VdW6>
-7.165

> <VdW12>
8.042

> <Bond>
0.134

> <Angle>
2.513

> <Pdih>
4.990

> <Idih>
0.001

> <Tether>
0.000

$$$$
VeraChem MOL file


 22 21  0  0  0  0  0  0  0  0999 V2000     
   18.2912   19.0179   19.3268 C   0  0  0  0  0  0  0  0  0  0  0  0
   17.1421   19.3976   19.4372 O   0  5  0  0  0  0  0  0  0  0  0  0
   19.1353   19.6080   18.6817 O   0  0  0  0  0  0  0  0  0  0  0  0
   18.6890   17.7187   20.0217 C   0  0  0  0  0  0  0  0  0  0  0  0
   19.6104   17.3428   19.5606 H   0  0  0  0  0  0  0  0  0  0  0  0
   17.9053   16.9813   19.8118 H   0  0  0  0  0  0  0  0  0  0  0  0
   18.8746   17.8549   21.5553 C   0  0  0  0  0  0  0  0  0  0  0  0
   17.9538   18.2587   21.9989 H   0  0  0  0  0  0  0  0  0  0  0  0
   19.0214   16.8554   21.9867 H   0  0  0  0  0  0  0  0  0  0  0  0
   20.0743   18.7532   21.9312 C   0  0  0  0  0  0  0  0  0  0  0  0
   19.9265   19.7604   21.5175 H   0  0  0  0  0  0  0  0  0  0  0  0
   20.9898   18.3527   21.4747 H   0  0  0  0  0  0  0  0  0  0  0  0
   20.2595   18.8493   23.4609 C   0  0  0  0  0  0  0  0  0  0  0  0
   19.3436   19.2498   23.9167 H   0  0  0  0  0  0  0  0  0  0  0  0
   20.4103   17.8436   23.8767 H   0  0  0  0  0  0  0  0  0  0  0  0
   21.4569   19.7468   23.8371 C   0  0  0  0  0  0  0  0  0  0  0  0
   21.3086   20.7544   23.4243 H   0  0  0  0  0  0  0  0  0  0  0  0
   22.3753   19.3483   23.3842 H   0  0  0  0  0  0  0  0  0  0  0  0
   21.6383   19.8409   25.3654 C   0  0  0  0  0  0  0  0  0  0  0  0
   20.7451   20.2664   25.8414 H   0  0  0  0  0  0  0  0  0  0  0  0
   22.4934   20.4825   25.6147 H   0  0  0  0  0  0  0  0  0  0  0  0
   21.8198   18.8496   25.8011 H   0  0  0  0  0  0  0  0  0  0  0  0
  1  2  1  0  0  0  0
  1  3  2  0  0  0  0
  1  4  1  0  0  0  0
  4  5  1  0  0  0  0
  4  6  1  0  0  0  0
  4  7  1  0  0  0  0
  7  8  1  0  0  0  0
  7  9  1  0  0  0  0
  7 10  1  0  0  0  0
 10 11  1  0  0  0  0
 10 12  1  0  0  0  0
 10 13  1  0  0  0  0
 13 14  1  0  0  0  0
 13 15  1  0  0  0  0
 13 16  1  0  0  0  0
 16 17  1  0  0  0  0
 16 18  1  0  0  0  0
 16 19  1  0  0  0  0
 19 20  1  0  0  0  0
 19 21  1  0  0  0  0
 19 22  1  0  0  0  0
M  END
> <VConfSearch Rank>
849

> <Conf_Id>
43

> <Delta U+W>
-0.129

> <U+W>
-53.289

> <U>
7.937

> <W>
-61.225

> <W(PB)>
-63.523

> <W(SA)>
2.297

> <Valence>
7.358

> <Coulomb>
-0.022

> <VdW>
0.601

> <VdW6>
-7.363

> <VdW12>
7.964

> <Bond>
0.121

> <Angle>
2.425

> <Pdih>
4.811

> <Idih>
0.000

> <Tether>
0.000

$$$$
VeraChem MOL file


 22 21  0  0  0  0  0  0  0  0999 V2000     
   21.3517   16.1186   23.0952 C   0  0  0  0  0  0  0  0  0  0  0  0
   21.7871   16.0884   24.2294 O   0  5  0  0  0  0  0  0  0  0  0  0
   22.0518   16.0501   22.1043 O   0  0  0  0  0  0  0  0  0  0  0  0
   19.8413   16.2303   22.9076 C   0  0  0  0  0  0  0  0  0  0  0  0
   19.3718   15.5172   23.5955 H   0  0  0  0  0  0  0  0  0  0  0  0
   19.5895   15.9038   21.8913 H   0  0  0  0  0  0  0  0  0  0  0  0
   19.2765   17.6507   23.1692 C   0  0  0  0  0  0  0  0  0  0  0  0
   18.1791   17.6074   23.1478 H   0  0  0  0  0  0  0  0  0  0  0  0
   19.5606   17.9749   24.1800 H   0  0  0  0  0  0  0  0  0  0  0  0
   19.7657   18.6852   22.1309 C   0  0  0  0  0  0  0  0  0  0  0  0
   19.4908   18.3501   21.1214 H   0  0  0  0  0  0  0  0  0  0  0  0
   20.8625   18.7468   22.1582 H   0  0  0  0  0  0  0  0  0  0  0  0
   19.1669   20.0841   22.3916 C   0  0  0  0  0  0  0  0  0  0  0  0
   18.0702   20.0257   22.3620 H   0  0  0  0  0  0  0  0  0  0  0  0
   19.4423   20.4185   23.4013 H   0  0  0  0  0  0  0  0  0  0  0  0
   19.6557   21.1179   21.3556 C   0  0  0  0  0  0  0  0  0  0  0  0
   19.3805   20.7875   20.3443 H   0  0  0  0  0  0  0  0  0  0  0  0
   20.7524   21.1803   21.3836 H   0  0  0  0  0  0  0  0  0  0  0  0
   19.0561   22.5137   21.6195 C   0  0  0  0  0  0  0  0  0  0  0  0
   17.9598   22.4868   21.5661 H   0  0  0  0  0  0  0  0  0  0  0  0
   19.4141   23.2357   20.8741 H   0  0  0  0  0  0  0  0  0  0  0  0
   19.3421   22.8825   22.6133 H   0  0  0  0  0  0  0  0  0  0  0  0
  1  2  1  0  0  0  0
  1  3  2  0  0  0  0
  1  4  1  0  0  0  0
  4  5  1  0  0  0  0
  4  6  1  0  0  0  0
  4  7  1  0  0  0  0
  7  8  1  0  0  0  0
  7  9  1  0  0  0  0
  7 10  1  0  0  0  0
 10 11  1  0  0  0  0
 10 12  1  0  0  0  0
 10 13  1  0  0  0  0
 13 14  1  0  0  0  0
 13 15  1  0  0  0  0
 13 16  1  0  0  0  0
 16 17  1  0  0  0  0
 16 18  1  0  0  0  0
 16 19  1  0  0  0  0
 19 20  1  0  0  0  0
 19 21  1  0  0  0  0
 19 22  1  0  0  0  0
M  END
> <VConfSearch Rank>
850

> <Conf_Id>
44

> <Delta U+W>
-0.155

> <U+W>
-53.314

> <U>
7.937

> <W>
-61.252

> <W(PB)>
-63.556

> <W(SA)>
2.304

> <Valence>
7.358

> <Coulomb>
-0.021

> <VdW>
0.600

> <VdW6>
-7.363

> <VdW12>
7.964

> <Bond>
0.121

> <Angle>
2.425

> <Pdih>
4.811

> <Idih>
0.001

> <Tether>
0.000

$$$$
VeraChem MOL file


 22 21  0  0  0  0  0  0  0  0999 V2000     
   21.3435   20.9978   24.7683 C   0  0  0  0  0  0  0  0  0  0  0  0
   20.5837   21.2816   25.6734 O   0  5  0  0  0  0  0  0  0  0  0  0
   22.0329   21.8136   24.1887 O   0  0  0  0  0  0  0  0  0  0  0  0
   21.4503   19.5335   24.3513 C   0  0  0  0  0  0  0  0  0  0  0  0
   21.5351   18.9380   25.2679 H   0  0  0  0  0  0  0  0  0  0  0  0
   22.3851   19.3947   23.7949 H   0  0  0  0  0  0  0  0  0  0  0  0
   20.2481   19.0250   23.5135 C   0  0  0  0  0  0  0  0  0  0  0  0
   20.3406   17.9377   23.3978 H   0  0  0  0  0  0  0  0  0  0  0  0
   19.3162   19.2076   24.0663 H   0  0  0  0  0  0  0  0  0  0  0  0
   20.1709   19.6931   22.1196 C   0  0  0  0  0  0  0  0  0  0  0  0
   21.0858   19.4742   21.5523 H   0  0  0  0  0  0  0  0  0  0  0  0
   20.1383   20.7842   22.2443 H   0  0  0  0  0  0  0  0  0  0  0  0
   18.9342   19.2611   21.2963 C   0  0  0  0  0  0  0  0  0  0  0  0
   18.0196   19.4801   21.8641 H   0  0  0  0  0  0  0  0  0  0  0  0
   18.8899   19.8765   20.3873 H   0  0  0  0  0  0  0  0  0  0  0  0
   18.9520   17.7699   20.8910 C   0  0  0  0  0  0  0  0  0  0  0  0
   18.9150   17.1338   21.7850 H   0  0  0  0  0  0  0  0  0  0  0  0
   19.8917   17.5383   20.3708 H   0  0  0  0  0  0  0  0  0  0  0  0
   17.7609   17.4184   19.9769 C   0  0  0  0  0  0  0  0  0  0  0  0
   16.8066   17.6150   20.4829 H   0  0  0  0  0  0  0  0  0  0  0  0
   17.7856   16.3563   19.7006 H   0  0  0  0  0  0  0  0  0  0  0  0
   17.7870   18.0096   19.0521 H   0  0  0  0  0  0  0  0  0  0  0  0
  1  2  1  0  0  0  0
  1  3  2  0  0  0  0
  1  4  1  0  0  0  0
  4  5  1  0  0  0  0
  4  6  1  0  0  0  0
  4  7  1  0  0  0  0
  7  8  1  0  0  0  0
  7  9  1  0  0  0  0
  7 10  1  0  0  0  0
 10 11  1  0  0  0  0
 10 12  1  0  0  0  0
 10 13  1  0  0  0  0
 13 14  1  0  0  0  0
 13 15  1  0  0  0  0
 13 16  1  0  0  0  0
 16 17  1  0  0  0  0
 16 18  1  0  0  0  0
 16 19  1  0  0  0  0
 19 20  1  0  0  0  0
 19 21  1  0  0  0  0
 19 22  1  0  0  0  0
M  END
> <VConfSearch Rank>
851

> <Conf_Id>
53

> <Delta U+W>
0.723

> <U+W>
-52.436

> <U>
8.587

> <W>
-61.022

> <W(PB)>
-63.285

> <W(SA)>
2.263

> <Valence>
7.933

> <Coulomb>
-0.124

> <VdW>
0.778

> <VdW6>
-7.981

> <VdW12>
8.759

> <Bond>
0.160

> <Angle>
2.698

> <Pdih>
5.074

> <Idih>
0.001

> <Tether>
0.000

$$$$
VeraChem MOL file


 22 21  0  0  0  0  0  0  0  0999 V2000     
   19.5167   16.1697   24.1330 C   0  0  0  0  0  0  0  0  0  0  0  0
   18.4001   16.0967   24.6066 O   0  5  0  0  0  0  0  0  0  0  0  0
   20.3546   15.2972   24.2485 O   0  0  0  0  0  0  0  0  0  0  0  0
   19.8794   17.4144   23.3310 C   0  0  0  0  0  0  0  0  0  0  0  0
   20.9544   17.5952   23.4495 H   0  0  0  0  0  0  0  0  0  0  0  0
   19.3499   18.2628   23.7789 H   0  0  0  0  0  0  0  0  0  0  0  0
   19.5192   17.2868   21.8293 C   0  0  0  0  0  0  0  0  0  0  0  0
   19.9516   16.3540   21.4417 H   0  0  0  0  0  0  0  0  0  0  0  0
   18.4299   17.1865   21.7264 H   0  0  0  0  0  0  0  0  0  0  0  0
   20.0178   18.4616   20.9508 C   0  0  0  0  0  0  0  0  0  0  0  0
   19.7467   18.2347   19.9106 H   0  0  0  0  0  0  0  0  0  0  0  0
   21.1153   18.5076   20.9696 H   0  0  0  0  0  0  0  0  0  0  0  0
   19.4155   19.8421   21.3160 C   0  0  0  0  0  0  0  0  0  0  0  0
   19.2583   20.4095   20.3885 H   0  0  0  0  0  0  0  0  0  0  0  0
   18.4222   19.7131   21.7672 H   0  0  0  0  0  0  0  0  0  0  0  0
   20.3240   20.6811   22.2441 C   0  0  0  0  0  0  0  0  0  0  0  0
   21.2931   20.8502   21.7547 H   0  0  0  0  0  0  0  0  0  0  0  0
   20.5327   20.1388   23.1740 H   0  0  0  0  0  0  0  0  0  0  0  0
   19.6822   22.0411   22.5845 C   0  0  0  0  0  0  0  0  0  0  0  0
   19.4975   22.6274   21.6749 H   0  0  0  0  0  0  0  0  0  0  0  0
   20.3416   22.6274   23.2376 H   0  0  0  0  0  0  0  0  0  0  0  0
   18.7251   21.9038   23.1044 H   0  0  0  0  0  0  0  0  0  0  0  0
  1  2  1  0  0  0  0
  1  3  2  0  0  0  0
  1  4  1  0  0  0  0
  4  5  1  0  0  0  0
  4  6  1  0  0  0  0
  4  7  1  0  0  0  0
  7  8  1  0  0  0  0
  7  9  1  0  0  0  0
  7 10  1  0  0  0  0
 10 11  1  0  0  0  0
 10 12  1  0  0  0  0
 10 13  1  0  0  0  0
 13 14  1  0  0  0  0
 13 15  1  0  0  0  0
 13 16  1  0  0  0  0
 16 17  1  0  0  0  0
 16 18  1  0  0  0  0
 16 19  1  0  0  0  0
 19 20  1  0  0  0  0
 19 21  1  0  0  0  0
 19 22  1  0  0  0  0
M  END
> <VConfSearch Rank>
852

> <Conf_Id>
5

> <Delta U+W>
2.167

> <U+W>
-50.993

> <U>
10.045

> <W>
-61.037

> <W(PB)>
-63.303

> <W(SA)>
2.266

> <Valence>
10.100

> <Coulomb>
-0.883

> <VdW>
0.828

> <VdW6>
-8.177

> <VdW12>
9.005

> <Bond>
0.182

> <Angle>
2.988

> <Pdih>
6.930

> <Idih>
0.001

> <Tether>
0.000

$$$$
VeraChem MOL file


 22 21  0  0  0  0  0  0  0  0999 V2000     
   22.0932   17.7775   20.1163 C   0  0  0  0  0  0  0  0  0  0  0  0
   23.0128   17.2453   20.7059 O   0  5  0  0  0  0  0  0  0  0  0  0
   22.0639   17.9270   18.9107 O   0  0  0  0  0  0  0  0  0  0  0  0
   20.9220   18.3072   20.9359 C   0  0  0  0  0  0  0  0  0  0  0  0
   20.7911   17.6405   21.7956 H   0  0  0  0  0  0  0  0  0  0  0  0
   20.0165   18.2371   20.3217 H   0  0  0  0  0  0  0  0  0  0  0  0
   21.1347   19.7660   21.4133 C   0  0  0  0  0  0  0  0  0  0  0  0
   21.9987   19.8020   22.0911 H   0  0  0  0  0  0  0  0  0  0  0  0
   21.3993   20.3853   20.5450 H   0  0  0  0  0  0  0  0  0  0  0  0
   19.9022   20.3966   22.1090 C   0  0  0  0  0  0  0  0  0  0  0  0
   19.0605   20.4551   21.4055 H   0  0  0  0  0  0  0  0  0  0  0  0
   20.1578   21.4362   22.3554 H   0  0  0  0  0  0  0  0  0  0  0  0
   19.4635   19.6855   23.4143 C   0  0  0  0  0  0  0  0  0  0  0  0
   20.3268   19.1972   23.8867 H   0  0  0  0  0  0  0  0  0  0  0  0
   19.1164   20.4472   24.1258 H   0  0  0  0  0  0  0  0  0  0  0  0
   18.3182   18.6684   23.2031 C   0  0  0  0  0  0  0  0  0  0  0  0
   18.6107   17.9028   22.4746 H   0  0  0  0  0  0  0  0  0  0  0  0
   17.4426   19.1829   22.7837 H   0  0  0  0  0  0  0  0  0  0  0  0
   17.9200   17.9828   24.5255 C   0  0  0  0  0  0  0  0  0  0  0  0
   18.7684   17.4324   24.9528 H   0  0  0  0  0  0  0  0  0  0  0  0
   17.1019   17.2697   24.3605 H   0  0  0  0  0  0  0  0  0  0  0  0
   17.5825   18.7208   25.2649 H   0  0  0  0  0  0  0  0  0  0  0  0
  1  2  1  0  0  0  0
  1  3  2  0  0  0  0
  1  4  1  0  0  0  0
  4  5  1  0  0  0  0
  4  6  1  0  0  0  0
  4  7  1  0  0  0  0
  7  8  1  0  0  0  0
  7  9  1  0  0  0  0
  7 10  1  0  0  0  0
 10 11  1  0  0  0  0
 10 12  1  0  0  0  0
 10 13  1  0  0  0  0
 13 14  1  0  0  0  0
 13 15  1  0  0  0  0
 13 16  1  0  0  0  0
 16 17  1  0  0  0  0
 16 18  1  0  0  0  0
 16 19  1  0  0  0  0
 19 20  1  0  0  0  0
 19 21  1  0  0  0  0
 19 22  1  0  0  0  0
M  END
> <VConfSearch Rank>
853

> <Conf_Id>
6

> <Delta U+W>
2.118

> <U+W>
-51.042

> <U>
10.045

> <W>
-61.086

> <W(PB)>
-63.356

> <W(SA)>
2.270

> <Valence>
10.100

> <Coulomb>
-0.883

> <VdW>
0.828

> <VdW6>
-8.177

> <VdW12>
9.004

> <Bond>
0.182

> <Angle>
2.988

> <Pdih>
6.930

> <Idih>
0.001

> <Tether>
0.000

$$$$
VeraChem MOL file


 22 21  0  0  0  0  0  0  0  0999 V2000     
   21.4548   18.6940   20.6139 C   0  0  0  0  0  0  0  0  0  0  0  0
   22.4387   19.3242   20.9491 O   0  5  0  0  0  0  0  0  0  0  0  0
   20.7164   19.0345   19.7106 O   0  0  0  0  0  0  0  0  0  0  0  0
   21.1690   17.3679   21.3162 C   0  0  0  0  0  0  0  0  0  0  0  0
   22.0166   16.7107   21.0903 H   0  0  0  0  0  0  0  0  0  0  0  0
   20.2843   16.9066   20.8608 H   0  0  0  0  0  0  0  0  0  0  0  0
   20.9958   17.4575   22.8586 C   0  0  0  0  0  0  0  0  0  0  0  0
   21.1657   16.4563   23.2773 H   0  0  0  0  0  0  0  0  0  0  0  0
   21.7775   18.1004   23.2867 H   0  0  0  0  0  0  0  0  0  0  0  0
   19.5993   17.9344   23.3289 C   0  0  0  0  0  0  0  0  0  0  0  0
   19.5446   17.8093   24.4190 H   0  0  0  0  0  0  0  0  0  0  0  0
   18.8237   17.2825   22.9042 H   0  0  0  0  0  0  0  0  0  0  0  0
   19.2866   19.4077   22.9822 C   0  0  0  0  0  0  0  0  0  0  0  0
   20.1133   20.0491   23.3172 H   0  0  0  0  0  0  0  0  0  0  0  0
   19.2083   19.5264   21.8941 H   0  0  0  0  0  0  0  0  0  0  0  0
   17.9693   19.8797   23.6331 C   0  0  0  0  0  0  0  0  0  0  0  0
   18.0360   19.7750   24.7248 H   0  0  0  0  0  0  0  0  0  0  0  0
   17.1417   19.2379   23.3003 H   0  0  0  0  0  0  0  0  0  0  0  0
   17.6546   21.3469   23.2784 C   0  0  0  0  0  0  0  0  0  0  0  0
   18.4526   22.0150   23.6279 H   0  0  0  0  0  0  0  0  0  0  0  0
   16.7150   21.6658   23.7480 H   0  0  0  0  0  0  0  0  0  0  0  0
   17.5518   21.4747   22.1927 H   0  0  0  0  0  0  0  0  0  0  0  0
  1  2  1  0  0  0  0
  1  3  2  0  0  0  0
  1  4  1  0  0  0  0
  4  5  1  0  0  0  0
  4  6  1  0  0  0  0
  4  7  1  0  0  0  0
  7  8  1  0  0  0  0
  7  9  1  0  0  0  0
  7 10  1  0  0  0  0
 10 11  1  0  0  0  0
 10 12  1  0  0  0  0
 10 13  1  0  0  0  0
 13 14  1  0  0  0  0
 13 15  1  0  0  0  0
 13 16  1  0  0  0  0
 16 17  1  0  0  0  0
 16 18  1  0  0  0  0
 16 19  1  0  0  0  0
 19 20  1  0  0  0  0
 19 21  1  0  0  0  0
 19 22  1  0  0  0  0
M  END
> <VConfSearch Rank>
854

> <Conf_Id>
8

> <Delta U+W>
1.886

> <U+W>
-51.274

> <U>
11.237

> <W>
-62.510

> <W(PB)>
-64.777

> <W(SA)>
2.267

> <Valence>
9.029

> <Coulomb>
1.667

> <VdW>
0.540

> <VdW6>
-8.825

> <VdW12>
9.365

> <Bond>
0.186

> <Angle>
3.195

> <Pdih>
5.642

> <Idih>
0.007

> <Tether>
0.000

$$$$
VeraChem MOL file


 22 21  0  0  0  0  0  0  0  0999 V2000     
   17.9422   16.9062   20.9113 C   0  0  0  0  0  0  0  0  0  0  0  0
   17.3902   16.6051   21.9511 O   0  5  0  0  0  0  0  0  0  0  0  0
   18.3564   16.0917   20.1099 O   0  0  0  0  0  0  0  0  0  0  0  0
   18.0982   18.3872   20.5772 C   0  0  0  0  0  0  0  0  0  0  0  0
   17.4429   18.9672   21.2367 H   0  0  0  0  0  0  0  0  0  0  0  0
   17.7186   18.5327   19.5591 H   0  0  0  0  0  0  0  0  0  0  0  0
   19.5599   18.9066   20.6582 C   0  0  0  0  0  0  0  0  0  0  0  0
   20.1685   18.3563   19.9274 H   0  0  0  0  0  0  0  0  0  0  0  0
   19.5859   19.9600   20.3482 H   0  0  0  0  0  0  0  0  0  0  0  0
   20.2165   18.7699   22.0543 C   0  0  0  0  0  0  0  0  0  0  0  0
   21.2662   19.0769   21.9659 H   0  0  0  0  0  0  0  0  0  0  0  0
   20.2270   17.7140   22.3575 H   0  0  0  0  0  0  0  0  0  0  0  0
   19.5213   19.6172   23.1480 C   0  0  0  0  0  0  0  0  0  0  0  0
   19.4912   20.6710   22.8395 H   0  0  0  0  0  0  0  0  0  0  0  0
   18.4785   19.2903   23.2512 H   0  0  0  0  0  0  0  0  0  0  0  0
   20.1956   19.5024   24.5351 C   0  0  0  0  0  0  0  0  0  0  0  0
   20.2409   18.4475   24.8390 H   0  0  0  0  0  0  0  0  0  0  0  0
   19.5636   20.0113   25.2758 H   0  0  0  0  0  0  0  0  0  0  0  0
   21.6100   20.1204   24.5840 C   0  0  0  0  0  0  0  0  0  0  0  0
   22.3127   19.5668   23.9491 H   0  0  0  0  0  0  0  0  0  0  0  0
   22.0023   20.0990   25.6090 H   0  0  0  0  0  0  0  0  0  0  0  0
   21.5937   21.1661   24.2505 H   0  0  0  0  0  0  0  0  0  0  0  0
  1  2  1  0  0  0  0
  1  3  2  0  0  0  0
  1  4  1  0  0  0  0
  4  5  1  0  0  0  0
  4  6  1  0  0  0  0
  4  7  1  0  0  0  0
  7  8  1  0  0  0  0
  7  9  1  0  0  0  0
  7 10  1  0  0  0  0
 10 11  1  0  0  0  0
 10 12  1  0  0  0  0
 10 13  1  0  0  0  0
 13 14  1  0  0  0  0
 13 15  1  0  0  0  0
 13 16  1  0  0  0  0
 16 17  1  0  0  0  0
 16 18  1  0  0  0  0
 16 19  1  0  0  0  0
 19 20  1  0  0  0  0
 19 21  1  0  0  0  0
 19 22  1  0  0  0  0
M  END
> <VConfSearch Rank>
855

> <Conf_Id>
93

> <Delta U+W>
1.836

> <U+W>
-51.323

> <U>
10.427

> <W>
-61.751

> <W(PB)>
-63.980

> <W(SA)>
2.230

> <Valence>
8.446

> <Coulomb>
1.306

> <VdW>
0.676

> <VdW6>
-8.928

> <VdW12>
9.604

> <Bond>
0.209

> <Angle>
3.066

> <Pdih>
5.170

> <Idih>
0.001

> <Tether>
0.000

$$$$
VeraChem MOL file


 22 21  0  0  0  0  0  0  0  0999 V2000     
   18.1447   16.9259   23.9587 C   0  0  0  0  0  0  0  0  0  0  0  0
   17.1260   17.1030   24.5975 O   0  5  0  0  0  0  0  0  0  0  0  0
   19.1850   16.5324   24.4482 O   0  0  0  0  0  0  0  0  0  0  0  0
   18.1043   17.1835   22.4549 C   0  0  0  0  0  0  0  0  0  0  0  0
   17.2321   16.6518   22.0571 H   0  0  0  0  0  0  0  0  0  0  0  0
   18.9844   16.7202   21.9952 H   0  0  0  0  0  0  0  0  0  0  0  0
   18.0085   18.6854   22.0697 C   0  0  0  0  0  0  0  0  0  0  0  0
   17.9271   18.7730   20.9779 H   0  0  0  0  0  0  0  0  0  0  0  0
   17.0752   19.0940   22.4811 H   0  0  0  0  0  0  0  0  0  0  0  0
   19.1913   19.5547   22.5638 C   0  0  0  0  0  0  0  0  0  0  0  0
   19.2586   19.5015   23.6591 H   0  0  0  0  0  0  0  0  0  0  0  0
   18.9683   20.6005   22.3180 H   0  0  0  0  0  0  0  0  0  0  0  0
   20.5515   19.1565   21.9402 C   0  0  0  0  0  0  0  0  0  0  0  0
   20.7832   18.1179   22.2093 H   0  0  0  0  0  0  0  0  0  0  0  0
   20.4826   19.1894   20.8445 H   0  0  0  0  0  0  0  0  0  0  0  0
   21.7268   20.0441   22.4122 C   0  0  0  0  0  0  0  0  0  0  0  0
   22.6656   19.6095   22.0420 H   0  0  0  0  0  0  0  0  0  0  0  0
   21.7882   20.0254   23.5092 H   0  0  0  0  0  0  0  0  0  0  0  0
   21.6303   21.5048   21.9203 C   0  0  0  0  0  0  0  0  0  0  0  0
   20.7700   22.0219   22.3627 H   0  0  0  0  0  0  0  0  0  0  0  0
   21.5330   21.5457   20.8276 H   0  0  0  0  0  0  0  0  0  0  0  0
   22.5325   22.0638   22.2001 H   0  0  0  0  0  0  0  0  0  0  0  0
  1  2  1  0  0  0  0
  1  3  2  0  0  0  0
  1  4  1  0  0  0  0
  4  5  1  0  0  0  0
  4  6  1  0  0  0  0
  4  7  1  0  0  0  0
  7  8  1  0  0  0  0
  7  9  1  0  0  0  0
  7 10  1  0  0  0  0
 10 11  1  0  0  0  0
 10 12  1  0  0  0  0
 10 13  1  0  0  0  0
 13 14  1  0  0  0  0
 13 15  1  0  0  0  0
 13 16  1  0  0  0  0
 16 17  1  0  0  0  0
 16 18  1  0  0  0  0
 16 19  1  0  0  0  0
 19 20  1  0  0  0  0
 19 21  1  0  0  0  0
 19 22  1  0  0  0  0
M  END
> <VConfSearch Rank>
856

> <Conf_Id>
70

> <Delta U+W>
1.803

> <U+W>
-51.356

> <U>
10.428

> <W>
-61.784

> <W(PB)>
-64.014

> <W(SA)>
2.230

> <Valence>
8.445

> <Coulomb>
1.306

> <VdW>
0.676

> <VdW6>
-8.929

> <VdW12>
9.605

> <Bond>
0.209

> <Angle>
3.066

> <Pdih>
5.170

> <Idih>
0.001

> <Tether>
0.000

$$$$
VeraChem MOL file


 22 21  0  0  0  0  0  0  0  0999 V2000     
   20.5416   15.9470   23.3360 C   0  0  0  0  0  0  0  0  0  0  0  0
   21.6547   16.0863   23.8034 O   0  5  0  0  0  0  0  0  0  0  0  0
   20.2846   15.1811   22.4282 O   0  0  0  0  0  0  0  0  0  0  0  0
   19.4018   16.7643   23.9376 C   0  0  0  0  0  0  0  0  0  0  0  0
   19.4967   16.7070   25.0284 H   0  0  0  0  0  0  0  0  0  0  0  0
   18.4509   16.2843   23.6763 H   0  0  0  0  0  0  0  0  0  0  0  0
   19.3915   18.2508   23.4959 C   0  0  0  0  0  0  0  0  0  0  0  0
   18.6270   18.7890   24.0723 H   0  0  0  0  0  0  0  0  0  0  0  0
   20.3588   18.7038   23.7501 H   0  0  0  0  0  0  0  0  0  0  0  0
   19.1033   18.4172   21.9847 C   0  0  0  0  0  0  0  0  0  0  0  0
   18.1763   17.8821   21.7372 H   0  0  0  0  0  0  0  0  0  0  0  0
   19.9011   17.9411   21.3980 H   0  0  0  0  0  0  0  0  0  0  0  0
   18.9510   19.8928   21.5454 C   0  0  0  0  0  0  0  0  0  0  0  0
   18.6286   19.9116   20.4953 H   0  0  0  0  0  0  0  0  0  0  0  0
   18.1485   20.3689   22.1252 H   0  0  0  0  0  0  0  0  0  0  0  0
   20.2527   20.7140   21.6850 C   0  0  0  0  0  0  0  0  0  0  0  0
   21.0682   20.2096   21.1486 H   0  0  0  0  0  0  0  0  0  0  0  0
   20.5513   20.7733   22.7398 H   0  0  0  0  0  0  0  0  0  0  0  0
   20.0819   22.1429   21.1311 C   0  0  0  0  0  0  0  0  0  0  0  0
   19.8200   22.1228   20.0651 H   0  0  0  0  0  0  0  0  0  0  0  0
   21.0132   22.7138   21.2403 H   0  0  0  0  0  0  0  0  0  0  0  0
   19.2898   22.6802   21.6689 H   0  0  0  0  0  0  0  0  0  0  0  0
  1  2  1  0  0  0  0
  1  3  2  0  0  0  0
  1  4  1  0  0  0  0
  4  5  1  0  0  0  0
  4  6  1  0  0  0  0
  4  7  1  0  0  0  0
  7  8  1  0  0  0  0
  7  9  1  0  0  0  0
  7 10  1  0  0  0  0
 10 11  1  0  0  0  0
 10 12  1  0  0  0  0
 10 13  1  0  0  0  0
 13 14  1  0  0  0  0
 13 15  1  0  0  0  0
 13 16  1  0  0  0  0
 16 17  1  0  0  0  0
 16 18  1  0  0  0  0
 16 19  1  0  0  0  0
 19 20  1  0  0  0  0
 19 21  1  0  0  0  0
 19 22  1  0  0  0  0
M  END
> <VConfSearch Rank>
857

> <Conf_Id>
85

> <Delta U+W>
0.707

> <U+W>
-52.452

> <U>
8.925

> <W>
-61.378

> <W(PB)>
-63.661

> <W(SA)>
2.283

> <Valence>
7.881

> <Coulomb>
0.349

> <VdW>
0.695

> <VdW6>
-8.049

> <VdW12>
8.743

> <Bond>
0.156

> <Angle>
2.660

> <Pdih>
5.064

> <Idih>
0.001

> <Tether>
0.000

$$$$
VeraChem MOL file


 22 21  0  0  0  0  0  0  0  0999 V2000     
   18.5328   21.5480   20.8873 C   0  0  0  0  0  0  0  0  0  0  0  0
   17.8092   22.1831   21.6290 O   0  5  0  0  0  0  0  0  0  0  0  0
   19.3842   22.0543   20.1833 O   0  0  0  0  0  0  0  0  0  0  0  0
   18.3482   20.0346   20.8176 C   0  0  0  0  0  0  0  0  0  0  0  0
   18.3397   19.7551   19.7575 H   0  0  0  0  0  0  0  0  0  0  0  0
   17.3596   19.7827   21.2202 H   0  0  0  0  0  0  0  0  0  0  0  0
   19.4483   19.2281   21.5558 C   0  0  0  0  0  0  0  0  0  0  0  0
   19.3168   18.1654   21.3164 H   0  0  0  0  0  0  0  0  0  0  0  0
   20.4356   19.5246   21.1756 H   0  0  0  0  0  0  0  0  0  0  0  0
   19.3965   19.4168   23.0896 C   0  0  0  0  0  0  0  0  0  0  0  0
   18.4386   19.0383   23.4716 H   0  0  0  0  0  0  0  0  0  0  0  0
   19.4162   20.4904   23.3219 H   0  0  0  0  0  0  0  0  0  0  0  0
   20.5606   18.7378   23.8539 C   0  0  0  0  0  0  0  0  0  0  0  0
   21.5197   19.1760   23.5456 H   0  0  0  0  0  0  0  0  0  0  0  0
   20.4470   18.9881   24.9176 H   0  0  0  0  0  0  0  0  0  0  0  0
   20.6093   17.1948   23.7250 C   0  0  0  0  0  0  0  0  0  0  0  0
   19.6018   16.7953   23.5443 H   0  0  0  0  0  0  0  0  0  0  0  0
   20.9373   16.7724   24.6849 H   0  0  0  0  0  0  0  0  0  0  0  0
   21.5842   16.7056   22.6308 C   0  0  0  0  0  0  0  0  0  0  0  0
   21.3061   17.0795   21.6390 H   0  0  0  0  0  0  0  0  0  0  0  0
   21.5916   15.6089   22.5857 H   0  0  0  0  0  0  0  0  0  0  0  0
   22.6082   17.0395   22.8432 H   0  0  0  0  0  0  0  0  0  0  0  0
  1  2  1  0  0  0  0
  1  3  2  0  0  0  0
  1  4  1  0  0  0  0
  4  5  1  0  0  0  0
  4  6  1  0  0  0  0
  4  7  1  0  0  0  0
  7  8  1  0  0  0  0
  7  9  1  0  0  0  0
  7 10  1  0  0  0  0
 10 11  1  0  0  0  0
 10 12  1  0  0  0  0
 10 13  1  0  0  0  0
 13 14  1  0  0  0  0
 13 15  1  0  0  0  0
 13 16  1  0  0  0  0
 16 17  1  0  0  0  0
 16 18  1  0  0  0  0
 16 19  1  0  0  0  0
 19 20  1  0  0  0  0
 19 21  1  0  0  0  0
 19 22  1  0  0  0  0
M  END
> <VConfSearch Rank>
858

> <Conf_Id>
82

> <Delta U+W>
3.438

> <U+W>
-49.721

> <U>
11.773

> <W>
-61.495

> <W(PB)>
-63.749

> <W(SA)>
2.254

> <Valence>
10.419

> <Coulomb>
0.565

> <VdW>
0.789

> <VdW6>
-8.847

> <VdW12>
9.636

> <Bond>
0.200

> <Angle>
3.187

> <Pdih>
7.032

> <Idih>
0.001

> <Tether>
0.000

$$$$
VeraChem MOL file


 22 21  0  0  0  0  0  0  0  0999 V2000     
   20.7776   22.0224   23.2028 C   0  0  0  0  0  0  0  0  0  0  0  0
   20.1264   22.7876   22.5191 O   0  5  0  0  0  0  0  0  0  0  0  0
   20.9377   22.1605   24.3995 O   0  0  0  0  0  0  0  0  0  0  0  0
   21.4493   20.8370   22.5149 C   0  0  0  0  0  0  0  0  0  0  0  0
   22.2485   20.4608   23.1650 H   0  0  0  0  0  0  0  0  0  0  0  0
   21.9315   21.2168   21.6065 H   0  0  0  0  0  0  0  0  0  0  0  0
   20.4770   19.6876   22.1419 C   0  0  0  0  0  0  0  0  0  0  0  0
   19.6565   20.0875   21.5303 H   0  0  0  0  0  0  0  0  0  0  0  0
   21.0195   18.9645   21.5200 H   0  0  0  0  0  0  0  0  0  0  0  0
   19.9044   18.9658   23.3838 C   0  0  0  0  0  0  0  0  0  0  0  0
   19.4589   19.7087   24.0593 H   0  0  0  0  0  0  0  0  0  0  0  0
   20.7249   18.4961   23.9432 H   0  0  0  0  0  0  0  0  0  0  0  0
   18.8258   17.9016   23.0602 C   0  0  0  0  0  0  0  0  0  0  0  0
   18.4585   17.5034   24.0159 H   0  0  0  0  0  0  0  0  0  0  0  0
   17.9585   18.3778   22.5828 H   0  0  0  0  0  0  0  0  0  0  0  0
   19.3245   16.7117   22.2026 C   0  0  0  0  0  0  0  0  0  0  0  0
   18.8239   15.7964   22.5475 H   0  0  0  0  0  0  0  0  0  0  0  0
   20.3995   16.5504   22.3627 H   0  0  0  0  0  0  0  0  0  0  0  0
   19.0259   16.8796   20.6961 C   0  0  0  0  0  0  0  0  0  0  0  0
   17.9460   16.9680   20.5200 H   0  0  0  0  0  0  0  0  0  0  0  0
   19.3873   16.0089   20.1338 H   0  0  0  0  0  0  0  0  0  0  0  0
   19.5099   17.7707   20.2805 H   0  0  0  0  0  0  0  0  0  0  0  0
  1  2  1  0  0  0  0
  1  3  2  0  0  0  0
  1  4  1  0  0  0  0
  4  5  1  0  0  0  0
  4  6  1  0  0  0  0
  4  7  1  0  0  0  0
  7  8  1  0  0  0  0
  7  9  1  0  0  0  0
  7 10  1  0  0  0  0
 10 11  1  0  0  0  0
 10 12  1  0  0  0  0
 10 13  1  0  0  0  0
 13 14  1  0  0  0  0
 13 15  1  0  0  0  0
 13 16  1  0  0  0  0
 16 17  1  0  0  0  0
 16 18  1  0  0  0  0
 16 19  1  0  0  0  0
 19 20  1  0  0  0  0
 19 21  1  0  0  0  0
 19 22  1  0  0  0  0
M  END
> <VConfSearch Rank>
859

> <Conf_Id>
94

> <Delta U+W>
3.471

> <U+W>
-49.688

> <U>
11.773

> <W>
-61.461

> <W(PB)>
-63.710

> <W(SA)>
2.248

> <Valence>
10.419

> <Coulomb>
0.566

> <VdW>
0.789

> <VdW6>
-8.847

> <VdW12>
9.636

> <Bond>
0.200

> <Angle>
3.187

> <Pdih>
7.032

> <Idih>
0.001

> <Tether>
0.000

$$$$
VeraChem MOL file


 22 21  0  0  0  0  0  0  0  0999 V2000     
   22.3625   17.0192   22.9254 C   0  0  0  0  0  0  0  0  0  0  0  0
   23.4964   16.9867   22.4895 O   0  5  0  0  0  0  0  0  0  0  0  0
   21.7521   16.0324   23.2861 O   0  0  0  0  0  0  0  0  0  0  0  0
   21.6608   18.3702   23.0058 C   0  0  0  0  0  0  0  0  0  0  0  0
   22.4181   19.1363   23.2103 H   0  0  0  0  0  0  0  0  0  0  0  0
   20.9833   18.3436   23.8669 H   0  0  0  0  0  0  0  0  0  0  0  0
   20.8819   18.7199   21.7114 C   0  0  0  0  0  0  0  0  0  0  0  0
   21.5704   18.6576   20.8575 H   0  0  0  0  0  0  0  0  0  0  0  0
   20.1071   17.9626   21.5327 H   0  0  0  0  0  0  0  0  0  0  0  0
   20.2493   20.1340   21.7337 C   0  0  0  0  0  0  0  0  0  0  0  0
   19.7649   20.3216   20.7664 H   0  0  0  0  0  0  0  0  0  0  0  0
   21.0516   20.8800   21.8136 H   0  0  0  0  0  0  0  0  0  0  0  0
   19.2274   20.3825   22.8744 C   0  0  0  0  0  0  0  0  0  0  0  0
   19.7478   20.3562   23.8407 H   0  0  0  0  0  0  0  0  0  0  0  0
   18.8356   21.4040   22.7767 H   0  0  0  0  0  0  0  0  0  0  0  0
   18.0362   19.3941   22.9190 C   0  0  0  0  0  0  0  0  0  0  0  0
   17.3999   19.6509   23.7769 H   0  0  0  0  0  0  0  0  0  0  0  0
   18.3981   18.3738   23.1038 H   0  0  0  0  0  0  0  0  0  0  0  0
   17.1757   19.4179   21.6373 C   0  0  0  0  0  0  0  0  0  0  0  0
   16.8165   20.4330   21.4243 H   0  0  0  0  0  0  0  0  0  0  0  0
   16.3004   18.7653   21.7499 H   0  0  0  0  0  0  0  0  0  0  0  0
   17.7451   19.0643   20.7685 H   0  0  0  0  0  0  0  0  0  0  0  0
  1  2  1  0  0  0  0
  1  3  2  0  0  0  0
  1  4  1  0  0  0  0
  4  5  1  0  0  0  0
  4  6  1  0  0  0  0
  4  7  1  0  0  0  0
  7  8  1  0  0  0  0
  7  9  1  0  0  0  0
  7 10  1  0  0  0  0
 10 11  1  0  0  0  0
 10 12  1  0  0  0  0
 10 13  1  0  0  0  0
 13 14  1  0  0  0  0
 13 15  1  0  0  0  0
 13 16  1  0  0  0  0
 16 17  1  0  0  0  0
 16 18  1  0  0  0  0
 16 19  1  0  0  0  0
 19 20  1  0  0  0  0
 19 21  1  0  0  0  0
 19 22  1  0  0  0  0
M  END
> <VConfSearch Rank>
860

> <Conf_Id>
56

> <Delta U+W>
0.853

> <U+W>
-52.307

> <U>
8.874

> <W>
-61.181

> <W(PB)>
-63.413

> <W(SA)>
2.232

> <Valence>
8.479

> <Coulomb>
-0.357

> <VdW>
0.753

> <VdW6>
-9.081

> <VdW12>
9.833

> <Bond>
0.221

> <Angle>
3.208

> <Pdih>
5.050

> <Idih>
0.000

> <Tether>
0.000

$$$$
VeraChem MOL file


 22 21  0  0  0  0  0  0  0  0999 V2000     
   18.8049   15.6266   20.0706 C   0  0  0  0  0  0  0  0  0  0  0  0
   17.6138   15.8437   20.1819 O   0  5  0  0  0  0  0  0  0  0  0  0
   19.2513   14.6632   19.4802 O   0  0  0  0  0  0  0  0  0  0  0  0
   19.8140   16.5933   20.6925 C   0  0  0  0  0  0  0  0  0  0  0  0
   20.4689   16.9454   19.8867 H   0  0  0  0  0  0  0  0  0  0  0  0
   20.4381   16.0147   21.3836 H   0  0  0  0  0  0  0  0  0  0  0  0
   19.1968   17.8082   21.4351 C   0  0  0  0  0  0  0  0  0  0  0  0
   18.5679   18.3800   20.7387 H   0  0  0  0  0  0  0  0  0  0  0  0
   18.5372   17.4485   22.2370 H   0  0  0  0  0  0  0  0  0  0  0  0
   20.2833   18.7299   22.0304 C   0  0  0  0  0  0  0  0  0  0  0  0
   20.9415   19.0882   21.2269 H   0  0  0  0  0  0  0  0  0  0  0  0
   20.9108   18.1560   22.7262 H   0  0  0  0  0  0  0  0  0  0  0  0
   19.6672   19.9376   22.7688 C   0  0  0  0  0  0  0  0  0  0  0  0
   19.0395   20.5118   22.0734 H   0  0  0  0  0  0  0  0  0  0  0  0
   19.0090   19.5797   23.5724 H   0  0  0  0  0  0  0  0  0  0  0  0
   20.7524   20.8591   23.3639 C   0  0  0  0  0  0  0  0  0  0  0  0
   21.4116   21.2208   22.5625 H   0  0  0  0  0  0  0  0  0  0  0  0
   21.3812   20.2887   24.0615 H   0  0  0  0  0  0  0  0  0  0  0  0
   20.1331   22.0638   24.1004 C   0  0  0  0  0  0  0  0  0  0  0  0
   19.5236   22.6705   23.4178 H   0  0  0  0  0  0  0  0  0  0  0  0
   20.9183   22.7081   24.5169 H   0  0  0  0  0  0  0  0  0  0  0  0
   19.4929   21.7314   24.9281 H   0  0  0  0  0  0  0  0  0  0  0  0
  1  2  1  0  0  0  0
  1  3  2  0  0  0  0
  1  4  1  0  0  0  0
  4  5  1  0  0  0  0
  4  6  1  0  0  0  0
  4  7  1  0  0  0  0
  7  8  1  0  0  0  0
  7  9  1  0  0  0  0
  7 10  1  0  0  0  0
 10 11  1  0  0  0  0
 10 12  1  0  0  0  0
 10 13  1  0  0  0  0
 13 14  1  0  0  0  0
 13 15  1  0  0  0  0
 13 16  1  0  0  0  0
 16 17  1  0  0  0  0
 16 18  1  0  0  0  0
 16 19  1  0  0  0  0
 19 20  1  0  0  0  0
 19 21  1  0  0  0  0
 19 22  1  0  0  0  0
M  END
> <VConfSearch Rank>
861

> <Conf_Id>
0

> <Delta U+W>
0.000

> <U+W>
-53.159

> <U>
6.763

> <W>
-59.922

> <W(PB)>
-62.256

> <W(SA)>
2.334

> <Valence>
7.600

> <Coulomb>
-2.139

> <VdW>
1.302

> <VdW6>
-6.786

> <VdW12>
8.088

> <Bond>
0.134

> <Angle>
2.720

> <Pdih>
4.746

> <Idih>
0.000

> <Tether>
0.000

$$$$
VeraChem MOL file


 22 21  0  0  0  0  0  0  0  0999 V2000     
   23.1557   17.1061   20.9821 C   0  0  0  0  0  0  0  0  0  0  0  0
   24.1714   17.7549   21.1363 O   0  5  0  0  0  0  0  0  0  0  0  0
   22.9930   16.3161   20.0733 O   0  0  0  0  0  0  0  0  0  0  0  0
   22.0134   17.3111   21.9708 C   0  0  0  0  0  0  0  0  0  0  0  0
   22.4482   17.5460   22.9498 H   0  0  0  0  0  0  0  0  0  0  0  0
   21.4772   16.3601   22.0740 H   0  0  0  0  0  0  0  0  0  0  0  0
   21.0362   18.4314   21.5373 C   0  0  0  0  0  0  0  0  0  0  0  0
   21.5907   19.3736   21.4258 H   0  0  0  0  0  0  0  0  0  0  0  0
   20.6197   18.1877   20.5500 H   0  0  0  0  0  0  0  0  0  0  0  0
   19.8896   18.6193   22.5541 C   0  0  0  0  0  0  0  0  0  0  0  0
   20.3093   18.8616   23.5401 H   0  0  0  0  0  0  0  0  0  0  0  0
   19.3381   17.6754   22.6641 H   0  0  0  0  0  0  0  0  0  0  0  0
   18.9171   19.7366   22.1193 C   0  0  0  0  0  0  0  0  0  0  0  0
   19.4681   20.6807   22.0091 H   0  0  0  0  0  0  0  0  0  0  0  0
   18.4971   19.4947   21.1332 H   0  0  0  0  0  0  0  0  0  0  0  0
   17.7708   19.9250   23.1350 C   0  0  0  0  0  0  0  0  0  0  0  0
   18.1869   20.1691   24.1222 H   0  0  0  0  0  0  0  0  0  0  0  0
   17.2159   18.9831   23.2464 H   0  0  0  0  0  0  0  0  0  0  0  0
   16.8019   21.0416   22.6972 C   0  0  0  0  0  0  0  0  0  0  0  0
   16.3464   20.8079   21.7259 H   0  0  0  0  0  0  0  0  0  0  0  0
   17.3248   22.0029   22.6083 H   0  0  0  0  0  0  0  0  0  0  0  0
   15.9937   21.1620   23.4303 H   0  0  0  0  0  0  0  0  0  0  0  0
  1  2  1  0  0  0  0
  1  3  2  0  0  0  0
  1  4  1  0  0  0  0
  4  5  1  0  0  0  0
  4  6  1  0  0  0  0
  4  7  1  0  0  0  0
  7  8  1  0  0  0  0
  7  9  1  0  0  0  0
  7 10  1  0  0  0  0
 10 11  1  0  0  0  0
 10 12  1  0  0  0  0
 10 13  1  0  0  0  0
 13 14  1  0  0  0  0
 13 15  1  0  0  0  0
 13 16  1  0  0  0  0
 16 17  1  0  0  0  0
 16 18  1  0  0  0  0
 16 19  1  0  0  0  0
 19 20  1  0  0  0  0
 19 21  1  0  0  0  0
 19 22  1  0  0  0  0
M  END
> <VConfSearch Rank>
862

> <Conf_Id>
10

> <Delta U+W>
-1.291

> <U+W>
-54.451

> <U>
5.779

> <W>
-60.230

> <W(PB)>
-62.557

> <W(SA)>
2.328

> <Valence>
7.101

> <Coulomb>
-2.079

> <VdW>
0.757

> <VdW6>
-6.496

> <VdW12>
7.253

> <Bond>
0.100

> <Angle>
2.262

> <Pdih>
4.738

> <Idih>
0.001

> <Tether>
0.000

$$$$
VeraChem MOL file


 22 21  0  0  0  0  0  0  0  0999 V2000     
   17.8659   21.8659   23.7955 C   0  0  0  0  0  0  0  0  0  0  0  0
   18.3038   22.2067   24.8764 O   0  5  0  0  0  0  0  0  0  0  0  0
   17.2549   22.6083   23.0524 O   0  0  0  0  0  0  0  0  0  0  0  0
   18.1150   20.4335   23.3368 C   0  0  0  0  0  0  0  0  0  0  0  0
   17.2632   20.1197   22.7215 H   0  0  0  0  0  0  0  0  0  0  0  0
   18.1288   19.7892   24.2241 H   0  0  0  0  0  0  0  0  0  0  0  0
   19.4348   20.2770   22.5421 C   0  0  0  0  0  0  0  0  0  0  0  0
   19.4104   20.9383   21.6648 H   0  0  0  0  0  0  0  0  0  0  0  0
   20.2763   20.6069   23.1671 H   0  0  0  0  0  0  0  0  0  0  0  0
   19.6638   18.8186   22.0894 C   0  0  0  0  0  0  0  0  0  0  0  0
   18.8223   18.4923   21.4631 H   0  0  0  0  0  0  0  0  0  0  0  0
   19.6794   18.1661   22.9721 H   0  0  0  0  0  0  0  0  0  0  0  0
   20.9843   18.6669   21.2997 C   0  0  0  0  0  0  0  0  0  0  0  0
   20.9827   19.3765   20.4610 H   0  0  0  0  0  0  0  0  0  0  0  0
   21.8327   18.9443   21.9402 H   0  0  0  0  0  0  0  0  0  0  0  0
   21.2045   17.2433   20.7376 C   0  0  0  0  0  0  0  0  0  0  0  0
   22.0968   17.2516   20.0965 H   0  0  0  0  0  0  0  0  0  0  0  0
   20.3607   16.9648   20.0913 H   0  0  0  0  0  0  0  0  0  0  0  0
   21.3921   16.1745   21.8362 C   0  0  0  0  0  0  0  0  0  0  0  0
   21.6329   15.2018   21.3881 H   0  0  0  0  0  0  0  0  0  0  0  0
   20.4800   16.0484   22.4326 H   0  0  0  0  0  0  0  0  0  0  0  0
   22.2121   16.4469   22.5134 H   0  0  0  0  0  0  0  0  0  0  0  0
  1  2  1  0  0  0  0
  1  3  2  0  0  0  0
  1  4  1  0  0  0  0
  4  5  1  0  0  0  0
  4  6  1  0  0  0  0
  4  7  1  0  0  0  0
  7  8  1  0  0  0  0
  7  9  1  0  0  0  0
  7 10  1  0  0  0  0
 10 11  1  0  0  0  0
 10 12  1  0  0  0  0
 10 13  1  0  0  0  0
 13 14  1  0  0  0  0
 13 15  1  0  0  0  0
 13 16  1  0  0  0  0
 16 17  1  0  0  0  0
 16 18  1  0  0  0  0
 16 19  1  0  0  0  0
 19 20  1  0  0  0  0
 19 21  1  0  0  0  0
 19 22  1  0  0  0  0
M  END
> <VConfSearch Rank>
863

> <Conf_Id>
37

> <Delta U+W>
-0.345

> <U+W>
-53.504

> <U>
6.751

> <W>
-60.255

> <W(PB)>
-62.592

> <W(SA)>
2.336

> <Valence>
7.602

> <Coulomb>
-1.744

> <VdW>
0.894

> <VdW6>
-7.110

> <VdW12>
8.004

> <Bond>
0.131

> <Angle>
2.489

> <Pdih>
4.982

> <Idih>
0.001

> <Tether>
0.000

$$$$
VeraChem MOL file


 22 21  0  0  0  0  0  0  0  0999 V2000     
   23.4637   19.8206   21.2014 C   0  0  0  0  0  0  0  0  0  0  0  0
   24.0747   20.3958   22.0803 O   0  5  0  0  0  0  0  0  0  0  0  0
   23.7214   19.9316   20.0192 O   0  0  0  0  0  0  0  0  0  0  0  0
   22.2954   18.9272   21.6028 C   0  0  0  0  0  0  0  0  0  0  0  0
   22.5240   18.4862   22.5805 H   0  0  0  0  0  0  0  0  0  0  0  0
   22.2333   18.1031   20.8820 H   0  0  0  0  0  0  0  0  0  0  0  0
   20.9481   19.6884   21.6616 C   0  0  0  0  0  0  0  0  0  0  0  0
   21.0306   20.5175   22.3781 H   0  0  0  0  0  0  0  0  0  0  0  0
   20.7409   20.1351   20.6792 H   0  0  0  0  0  0  0  0  0  0  0  0
   19.7819   18.7624   22.0698 C   0  0  0  0  0  0  0  0  0  0  0  0
   20.0024   18.3163   23.0484 H   0  0  0  0  0  0  0  0  0  0  0  0
   19.7005   17.9359   21.3506 H   0  0  0  0  0  0  0  0  0  0  0  0
   18.4400   19.5278   22.1308 C   0  0  0  0  0  0  0  0  0  0  0  0
   18.5015   20.3233   22.8861 H   0  0  0  0  0  0  0  0  0  0  0  0
   18.2689   20.0265   21.1670 H   0  0  0  0  0  0  0  0  0  0  0  0
   17.2268   18.6185   22.4352 C   0  0  0  0  0  0  0  0  0  0  0  0
   17.1583   17.8253   21.6780 H   0  0  0  0  0  0  0  0  0  0  0  0
   16.3082   19.2144   22.3442 H   0  0  0  0  0  0  0  0  0  0  0  0
   17.2730   17.9889   23.8444 C   0  0  0  0  0  0  0  0  0  0  0  0
   17.3719   18.7623   24.6172 H   0  0  0  0  0  0  0  0  0  0  0  0
   18.1143   17.2919   23.9445 H   0  0  0  0  0  0  0  0  0  0  0  0
   16.3512   17.4275   24.0442 H   0  0  0  0  0  0  0  0  0  0  0  0
  1  2  1  0  0  0  0
  1  3  2  0  0  0  0
  1  4  1  0  0  0  0
  4  5  1  0  0  0  0
  4  6  1  0  0  0  0
  4  7  1  0  0  0  0
  7  8  1  0  0  0  0
  7  9  1  0  0  0  0
  7 10  1  0  0  0  0
 10 11  1  0  0  0  0
 10 12  1  0  0  0  0
 10 13  1  0  0  0  0
 13 14  1  0  0  0  0
 13 15  1  0  0  0  0
 13 16  1  0  0  0  0
 16 17  1  0  0  0  0
 16 18  1  0  0  0  0
 16 19  1  0  0  0  0
 19 20  1  0  0  0  0
 19 21  1  0  0  0  0
 19 22  1  0  0  0  0
M  END
> <VConfSearch Rank>
864

> <Conf_Id>
38

> <Delta U+W>
-0.439

> <U+W>
-53.598

> <U>
6.751

> <W>
-60.350

> <W(PB)>
-62.659

> <W(SA)>
2.309

> <Valence>
7.602

> <Coulomb>
-1.744

> <VdW>
0.893

> <VdW6>
-7.110

> <VdW12>
8.004

> <Bond>
0.131

> <Angle>
2.489

> <Pdih>
4.981

> <Idih>
0.001

> <Tether>
0.000

$$$$
VeraChem MOL file


 22 21  0  0  0  0  0  0  0  0999 V2000     
   22.2565   21.8713   21.6339 C   0  0  0  0  0  0  0  0  0  0  0  0
   23.3944   21.8969   22.0594 O   0  5  0  0  0  0  0  0  0  0  0  0
   21.6418   22.8638   21.2971 O   0  0  0  0  0  0  0  0  0  0  0  0
   21.5536   20.5217   21.5390 C   0  0  0  0  0  0  0  0  0  0  0  0
   22.3110   19.7583   21.3245 H   0  0  0  0  0  0  0  0  0  0  0  0
   20.8765   20.5595   20.6784 H   0  0  0  0  0  0  0  0  0  0  0  0
   20.7779   20.1576   22.8317 C   0  0  0  0  0  0  0  0  0  0  0  0
   21.4667   20.2253   23.6851 H   0  0  0  0  0  0  0  0  0  0  0  0
   19.9900   20.9024   23.0099 H   0  0  0  0  0  0  0  0  0  0  0  0
   20.1605   18.7388   22.8066 C   0  0  0  0  0  0  0  0  0  0  0  0
   19.7620   18.5244   23.8064 H   0  0  0  0  0  0  0  0  0  0  0  0
   20.9494   17.9975   22.6200 H   0  0  0  0  0  0  0  0  0  0  0  0
   19.0325   18.5771   21.7581 C   0  0  0  0  0  0  0  0  0  0  0  0
   18.2446   19.3196   21.9438 H   0  0  0  0  0  0  0  0  0  0  0  0
   19.4303   18.7882   20.7575 H   0  0  0  0  0  0  0  0  0  0  0  0
   18.4128   17.1602   21.7365 C   0  0  0  0  0  0  0  0  0  0  0  0
   19.1997   16.4133   21.5624 H   0  0  0  0  0  0  0  0  0  0  0  0
   17.7252   17.0906   20.8823 H   0  0  0  0  0  0  0  0  0  0  0  0
   17.6377   16.8089   23.0250 C   0  0  0  0  0  0  0  0  0  0  0  0
   18.3069   16.7454   23.8919 H   0  0  0  0  0  0  0  0  0  0  0  0
   17.1393   15.8365   22.9195 H   0  0  0  0  0  0  0  0  0  0  0  0
   16.8675   17.5617   23.2380 H   0  0  0  0  0  0  0  0  0  0  0  0
  1  2  1  0  0  0  0
  1  3  2  0  0  0  0
  1  4  1  0  0  0  0
  4  5  1  0  0  0  0
  4  6  1  0  0  0  0
  4  7  1  0  0  0  0
  7  8  1  0  0  0  0
  7  9  1  0  0  0  0
  7 10  1  0  0  0  0
 10 11  1  0  0  0  0
 10 12  1  0  0  0  0
 10 13  1  0  0  0  0
 13 14  1  0  0  0  0
 13 15  1  0  0  0  0
 13 16  1  0  0  0  0
 16 17  1  0  0  0  0
 16 18  1  0  0  0  0
 16 19  1  0  0  0  0
 19 20  1  0  0  0  0
 19 21  1  0  0  0  0
 19 22  1  0  0  0  0
M  END
> <VConfSearch Rank>
865

> <Conf_Id>
60

> <Delta U+W>
0.386

> <U+W>
-52.773

> <U>
7.689

> <W>
-60.463

> <W(PB)>
-62.772

> <W(SA)>
2.309

> <Valence>
8.197

> <Coulomb>
-1.561

> <VdW>
1.053

> <VdW6>
-7.737

> <VdW12>
8.790

> <Bond>
0.181

> <Angle>
2.780

> <Pdih>
5.235

> <Idih>
0.001

> <Tether>
0.000

$$$$
VeraChem MOL file


 22 21  0  0  0  0  0  0  0  0999 V2000     
   16.5687   17.6937   20.8519 C   0  0  0  0  0  0  0  0  0  0  0  0
   15.6598   18.4009   21.2396 O   0  5  0  0  0  0  0  0  0  0  0  0
   16.4071   16.5755   20.4046 O   0  0  0  0  0  0  0  0  0  0  0  0
   17.9922   18.2298   20.9533 C   0  0  0  0  0  0  0  0  0  0  0  0
   17.9511   19.3136   20.7978 H   0  0  0  0  0  0  0  0  0  0  0  0
   18.5754   17.8041   20.1280 H   0  0  0  0  0  0  0  0  0  0  0  0
   18.6635   17.8956   22.3109 C   0  0  0  0  0  0  0  0  0  0  0  0
   18.0986   18.3679   23.1265 H   0  0  0  0  0  0  0  0  0  0  0  0
   18.5988   16.8113   22.4768 H   0  0  0  0  0  0  0  0  0  0  0  0
   20.1497   18.3195   22.3899 C   0  0  0  0  0  0  0  0  0  0  0  0
   20.7098   17.8522   21.5686 H   0  0  0  0  0  0  0  0  0  0  0  0
   20.5684   17.9167   23.3210 H   0  0  0  0  0  0  0  0  0  0  0  0
   20.3545   19.8540   22.3557 C   0  0  0  0  0  0  0  0  0  0  0  0
   19.9391   20.2577   21.4238 H   0  0  0  0  0  0  0  0  0  0  0  0
   19.7929   20.3213   23.1760 H   0  0  0  0  0  0  0  0  0  0  0  0
   21.8398   20.2773   22.4393 C   0  0  0  0  0  0  0  0  0  0  0  0
   21.9061   21.3611   22.2714 H   0  0  0  0  0  0  0  0  0  0  0  0
   22.4074   19.8026   21.6270 H   0  0  0  0  0  0  0  0  0  0  0  0
   22.4975   19.9461   23.7966 C   0  0  0  0  0  0  0  0  0  0  0  0
   21.9267   20.3821   24.6267 H   0  0  0  0  0  0  0  0  0  0  0  0
   23.5166   20.3519   23.8378 H   0  0  0  0  0  0  0  0  0  0  0  0
   22.5658   18.8630   23.9564 H   0  0  0  0  0  0  0  0  0  0  0  0
  1  2  1  0  0  0  0
  1  3  2  0  0  0  0
  1  4  1  0  0  0  0
  4  5  1  0  0  0  0
  4  6  1  0  0  0  0
  4  7  1  0  0  0  0
  7  8  1  0  0  0  0
  7  9  1  0  0  0  0
  7 10  1  0  0  0  0
 10 11  1  0  0  0  0
 10 12  1  0  0  0  0
 10 13  1  0  0  0  0
 13 14  1  0  0  0  0
 13 15  1  0  0  0  0
 13 16  1  0  0  0  0
 16 17  1  0  0  0  0
 16 18  1  0  0  0  0
 16 19  1  0  0  0  0
 19 20  1  0  0  0  0
 19 21  1  0  0  0  0
 19 22  1  0  0  0  0
M  END
> <VConfSearch Rank>
866

> <Conf_Id>
28

> <Delta U+W>
0.351

> <U+W>
-52.808

> <U>
7.689

> <W>
-60.498

> <W(PB)>
-62.768

> <W(SA)>
2.270

> <Valence>
8.197

> <Coulomb>
-1.561

> <VdW>
1.053

> <VdW6>
-7.737

> <VdW12>
8.791

> <Bond>
0.181

> <Angle>
2.780

> <Pdih>
5.235

> <Idih>
0.001

> <Tether>
0.000

$$$$
VeraChem MOL file


 22 21  0  0  0  0  0  0  0  0999 V2000     
   18.4327   17.6341   25.4572 C   0  0  0  0  0  0  0  0  0  0  0  0
   18.6546   16.4750   25.7466 O   0  5  0  0  0  0  0  0  0  0  0  0
   18.4639   18.5460   26.2596 O   0  0  0  0  0  0  0  0  0  0  0  0
   18.1173   17.9652   24.0028 C   0  0  0  0  0  0  0  0  0  0  0  0
   17.4289   18.8188   23.9892 H   0  0  0  0  0  0  0  0  0  0  0  0
   17.5842   17.1116   23.5672 H   0  0  0  0  0  0  0  0  0  0  0  0
   19.3832   18.2870   23.1709 C   0  0  0  0  0  0  0  0  0  0  0  0
   19.9093   19.1302   23.6376 H   0  0  0  0  0  0  0  0  0  0  0  0
   20.0659   17.4265   23.2018 H   0  0  0  0  0  0  0  0  0  0  0  0
   19.0341   18.6235   21.7026 C   0  0  0  0  0  0  0  0  0  0  0  0
   18.3940   19.5158   21.6688 H   0  0  0  0  0  0  0  0  0  0  0  0
   18.4425   17.8005   21.2788 H   0  0  0  0  0  0  0  0  0  0  0  0
   20.2772   18.8439   20.8084 C   0  0  0  0  0  0  0  0  0  0  0  0
   20.9155   17.9502   20.8387 H   0  0  0  0  0  0  0  0  0  0  0  0
   19.9425   18.9511   19.7675 H   0  0  0  0  0  0  0  0  0  0  0  0
   21.1051   20.0888   21.1994 C   0  0  0  0  0  0  0  0  0  0  0  0
   21.5157   19.9681   22.2105 H   0  0  0  0  0  0  0  0  0  0  0  0
   20.4552   20.9745   21.2205 H   0  0  0  0  0  0  0  0  0  0  0  0
   22.2656   20.3287   20.2128 C   0  0  0  0  0  0  0  0  0  0  0  0
   21.8887   20.4925   19.1947 H   0  0  0  0  0  0  0  0  0  0  0  0
   22.9472   19.4683   20.1920 H   0  0  0  0  0  0  0  0  0  0  0  0
   22.8455   21.2136   20.5056 H   0  0  0  0  0  0  0  0  0  0  0  0
  1  2  1  0  0  0  0
  1  3  2  0  0  0  0
  1  4  1  0  0  0  0
  4  5  1  0  0  0  0
  4  6  1  0  0  0  0
  4  7  1  0  0  0  0
  7  8  1  0  0  0  0
  7  9  1  0  0  0  0
  7 10  1  0  0  0  0
 10 11  1  0  0  0  0
 10 12  1  0  0  0  0
 10 13  1  0  0  0  0
 13 14  1  0  0  0  0
 13 15  1  0  0  0  0
 13 16  1  0  0  0  0
 16 17  1  0  0  0  0
 16 18  1  0  0  0  0
 16 19  1  0  0  0  0
 19 20  1  0  0  0  0
 19 21  1  0  0  0  0
 19 22  1  0  0  0  0
M  END
> <VConfSearch Rank>
867

> <Conf_Id>
50

> <Delta U+W>
-0.486

> <U+W>
-53.646

> <U>
7.026

> <W>
-60.672

> <W(PB)>
-62.964

> <W(SA)>
2.292

> <Valence>
7.637

> <Coulomb>
-1.488

> <VdW>
0.877

> <VdW6>
-7.165

> <VdW12>
8.043

> <Bond>
0.134

> <Angle>
2.513

> <Pdih>
4.990

> <Idih>
0.001

> <Tether>
0.000

$$$$
VeraChem MOL file


 22 21  0  0  0  0  0  0  0  0999 V2000     
   22.0682   21.7658   21.2613 C   0  0  0  0  0  0  0  0  0  0  0  0
   22.8438   22.1637   22.1078 O   0  5  0  0  0  0  0  0  0  0  0  0
   21.4649   22.4991   20.5033 O   0  0  0  0  0  0  0  0  0  0  0  0
   21.8229   20.2646   21.1584 C   0  0  0  0  0  0  0  0  0  0  0  0
   22.7515   19.7484   21.4301 H   0  0  0  0  0  0  0  0  0  0  0  0
   21.6136   20.0247   20.1090 H   0  0  0  0  0  0  0  0  0  0  0  0
   20.6590   19.7820   22.0588 C   0  0  0  0  0  0  0  0  0  0  0  0
   20.8795   20.0375   23.1045 H   0  0  0  0  0  0  0  0  0  0  0  0
   19.7469   20.3266   21.7814 H   0  0  0  0  0  0  0  0  0  0  0  0
   20.4295   18.2581   21.9314 C   0  0  0  0  0  0  0  0  0  0  0  0
   21.3740   17.7365   22.1384 H   0  0  0  0  0  0  0  0  0  0  0  0
   20.1574   18.0094   20.8965 H   0  0  0  0  0  0  0  0  0  0  0  0
   19.3486   17.7149   22.8958 C   0  0  0  0  0  0  0  0  0  0  0  0
   19.3412   16.6184   22.8280 H   0  0  0  0  0  0  0  0  0  0  0  0
   19.6224   17.9600   23.9311 H   0  0  0  0  0  0  0  0  0  0  0  0
   17.9291   18.2454   22.5928 C   0  0  0  0  0  0  0  0  0  0  0  0
   17.6757   18.0472   21.5422 H   0  0  0  0  0  0  0  0  0  0  0  0
   17.8943   19.3340   22.7313 H   0  0  0  0  0  0  0  0  0  0  0  0
   16.8738   17.5901   23.5063 C   0  0  0  0  0  0  0  0  0  0  0  0
   17.0878   17.7958   24.5634 H   0  0  0  0  0  0  0  0  0  0  0  0
   16.8535   16.5014   23.3659 H   0  0  0  0  0  0  0  0  0  0  0  0
   15.8723   17.9792   23.2813 H   0  0  0  0  0  0  0  0  0  0  0  0
  1  2  1  0  0  0  0
  1  3  2  0  0  0  0
  1  4  1  0  0  0  0
  4  5  1  0  0  0  0
  4  6  1  0  0  0  0
  4  7  1  0  0  0  0
  7  8  1  0  0  0  0
  7  9  1  0  0  0  0
  7 10  1  0  0  0  0
 10 11  1  0  0  0  0
 10 12  1  0  0  0  0
 10 13  1  0  0  0  0
 13 14  1  0  0  0  0
 13 15  1  0  0  0  0
 13 16  1  0  0  0  0
 16 17  1  0  0  0  0
 16 18  1  0  0  0  0
 16 19  1  0  0  0  0
 19 20  1  0  0  0  0
 19 21  1  0  0  0  0
 19 22  1  0  0  0  0
M  END
> <VConfSearch Rank>
868

> <Conf_Id>
51

> <Delta U+W>
-0.517

> <U+W>
-53.677

> <U>
7.026

> <W>
-60.703

> <W(PB)>
-63.007

> <W(SA)>
2.304

> <Valence>
7.638

> <Coulomb>
-1.488

> <VdW>
0.877

> <VdW6>
-7.165

> <VdW12>
8.042

> <Bond>
0.134

> <Angle>
2.513

> <Pdih>
4.990

> <Idih>
0.001

> <Tether>
0.000

$$$$
VeraChem MOL file


 22 21  0  0  0  0  0  0  0  0999 V2000     
   22.4901   19.8589   24.5313 C   0  0  0  0  0  0  0  0  0  0  0  0
   22.0978   20.0301   25.6688 O   0  5  0  0  0  0  0  0  0  0  0  0
   23.3263   19.0318   24.2259 O   0  0  0  0  0  0  0  0  0  0  0  0
   21.9134   20.7452   23.4309 C   0  0  0  0  0  0  0  0  0  0  0  0
   22.5886   20.7152   22.5671 H   0  0  0  0  0  0  0  0  0  0  0  0
   21.9200   21.7764   23.8032 H   0  0  0  0  0  0  0  0  0  0  0  0
   20.4746   20.3595   22.9995 C   0  0  0  0  0  0  0  0  0  0  0  0
   19.8165   20.3667   23.8796 H   0  0  0  0  0  0  0  0  0  0  0  0
   20.0912   21.1255   22.3119 H   0  0  0  0  0  0  0  0  0  0  0  0
   20.4111   18.9782   22.3098 C   0  0  0  0  0  0  0  0  0  0  0  0
   20.7772   18.2038   22.9980 H   0  0  0  0  0  0  0  0  0  0  0  0
   21.0805   18.9720   21.4386 H   0  0  0  0  0  0  0  0  0  0  0  0
   18.9759   18.6287   21.8610 C   0  0  0  0  0  0  0  0  0  0  0  0
   18.3073   18.6351   22.7327 H   0  0  0  0  0  0  0  0  0  0  0  0
   18.6087   19.4002   21.1704 H   0  0  0  0  0  0  0  0  0  0  0  0
   18.9117   17.2490   21.1728 C   0  0  0  0  0  0  0  0  0  0  0  0
   19.2767   16.4744   21.8614 H   0  0  0  0  0  0  0  0  0  0  0  0
   19.5782   17.2394   20.2992 H   0  0  0  0  0  0  0  0  0  0  0  0
   17.4769   16.9031   20.7266 C   0  0  0  0  0  0  0  0  0  0  0  0
   16.7943   16.8748   21.5860 H   0  0  0  0  0  0  0  0  0  0  0  0
   17.4497   15.9196   20.2397 H   0  0  0  0  0  0  0  0  0  0  0  0
   17.0980   17.6457   20.0121 H   0  0  0  0  0  0  0  0  0  0  0  0
  1  2  1  0  0  0  0
  1  3  2  0  0  0  0
  1  4  1  0  0  0  0
  4  5  1  0  0  0  0
  4  6  1  0  0  0  0
  4  7  1  0  0  0  0
  7  8  1  0  0  0  0
  7  9  1  0  0  0  0
  7 10  1  0  0  0  0
 10 11  1  0  0  0  0
 10 12  1  0  0  0  0
 10 13  1  0  0  0  0
 13 14  1  0  0  0  0
 13 15  1  0  0  0  0
 13 16  1  0  0  0  0
 16 17  1  0  0  0  0
 16 18  1  0  0  0  0
 16 19  1  0  0  0  0
 19 20  1  0  0  0  0
 19 21  1  0  0  0  0
 19 22  1  0  0  0  0
M  END
> <VConfSearch Rank>
869

> <Conf_Id>
43

> <Delta U+W>
-0.129

> <U+W>
-53.289

> <U>
7.937

> <W>
-61.225

> <W(PB)>
-63.523

> <W(SA)>
2.297

> <Valence>
7.358

> <Coulomb>
-0.022

> <VdW>
0.601

> <VdW6>
-7.363

> <VdW12>
7.964

> <Bond>
0.121

> <Angle>
2.425

> <Pdih>
4.811

> <Idih>
0.000

> <Tether>
0.000

$$$$
VeraChem MOL file


 22 21  0  0  0  0  0  0  0  0999 V2000     
   21.1211   16.0185   21.5310 C   0  0  0  0  0  0  0  0  0  0  0  0
   21.5592   15.4226   22.4954 O   0  5  0  0  0  0  0  0  0  0  0  0
   21.8082   16.3849   20.5981 O   0  0  0  0  0  0  0  0  0  0  0  0
   19.6229   16.3050   21.4826 C   0  0  0  0  0  0  0  0  0  0  0  0
   19.1033   15.3827   21.7682 H   0  0  0  0  0  0  0  0  0  0  0  0
   19.3408   16.5199   20.4447 H   0  0  0  0  0  0  0  0  0  0  0  0
   19.1717   17.4624   22.4108 C   0  0  0  0  0  0  0  0  0  0  0  0
   18.0742   17.5067   22.4175 H   0  0  0  0  0  0  0  0  0  0  0  0
   19.4858   17.2460   23.4414 H   0  0  0  0  0  0  0  0  0  0  0  0
   19.7340   18.8322   21.9690 C   0  0  0  0  0  0  0  0  0  0  0  0
   19.4283   19.0378   20.9340 H   0  0  0  0  0  0  0  0  0  0  0  0
   20.8324   18.8011   21.9762 H   0  0  0  0  0  0  0  0  0  0  0  0
   19.2471   19.9734   22.8877 C   0  0  0  0  0  0  0  0  0  0  0  0
   18.1491   20.0083   22.8799 H   0  0  0  0  0  0  0  0  0  0  0  0
   19.5533   19.7671   23.9225 H   0  0  0  0  0  0  0  0  0  0  0  0
   19.8089   21.3415   22.4476 C   0  0  0  0  0  0  0  0  0  0  0  0
   19.5033   21.5521   21.4133 H   0  0  0  0  0  0  0  0  0  0  0  0
   20.9074   21.3108   22.4559 H   0  0  0  0  0  0  0  0  0  0  0  0
   19.3211   22.4785   23.3676 C   0  0  0  0  0  0  0  0  0  0  0  0
   18.2258   22.5523   23.3540 H   0  0  0  0  0  0  0  0  0  0  0  0
   19.7299   23.4433   23.0404 H   0  0  0  0  0  0  0  0  0  0  0  0
   19.6405   22.3092   24.4044 H   0  0  0  0  0  0  0  0  0  0  0  0
  1  2  1  0  0  0  0
  1  3  2  0  0  0  0
  1  4  1  0  0  0  0
  4  5  1  0  0  0  0
  4  6  1  0  0  0  0
  4  7  1  0  0  0  0
  7  8  1  0  0  0  0
  7  9  1  0  0  0  0
  7 10  1  0  0  0  0
 10 11  1  0  0  0  0
 10 12  1  0  0  0  0
 10 13  1  0  0  0  0
 13 14  1  0  0  0  0
 13 15  1  0  0  0  0
 13 16  1  0  0  0  0
 16 17  1  0  0  0  0
 16 18  1  0  0  0  0
 16 19  1  0  0  0  0
 19 20  1  0  0  0  0
 19 21  1  0  0  0  0
 19 22  1  0  0  0  0
M  END
> <VConfSearch Rank>
870

> <Conf_Id>
44

> <Delta U+W>
-0.155

> <U+W>
-53.314

> <U>
7.937

> <W>
-61.252

> <W(PB)>
-63.556

> <W(SA)>
2.304

> <Valence>
7.358

> <Coulomb>
-0.021

> <VdW>
0.600

> <VdW6>
-7.363

> <VdW12>
7.964

> <Bond>
0.121

> <Angle>
2.425

> <Pdih>
4.811

> <Idih>
0.001

> <Tether>
0.000

$$$$
VeraChem MOL file


 22 21  0  0  0  0  0  0  0  0999 V2000     
   16.2156   19.1503   22.0970 C   0  0  0  0  0  0  0  0  0  0  0  0
   15.7234   18.0455   22.2157 O   0  5  0  0  0  0  0  0  0  0  0  0
   15.9319   19.9197   21.2000 O   0  0  0  0  0  0  0  0  0  0  0  0
   17.2308   19.6016   23.1434 C   0  0  0  0  0  0  0  0  0  0  0  0
   16.8185   19.3516   24.1280 H   0  0  0  0  0  0  0  0  0  0  0  0
   17.3143   20.6944   23.1025 H   0  0  0  0  0  0  0  0  0  0  0  0
   18.6305   18.9517   22.9884 C   0  0  0  0  0  0  0  0  0  0  0  0
   19.2346   19.2146   23.8660 H   0  0  0  0  0  0  0  0  0  0  0  0
   18.5260   17.8579   22.9907 H   0  0  0  0  0  0  0  0  0  0  0  0
   19.3571   19.4067   21.6999 C   0  0  0  0  0  0  0  0  0  0  0  0
   19.4983   20.4959   21.7189 H   0  0  0  0  0  0  0  0  0  0  0  0
   18.7187   19.1930   20.8316 H   0  0  0  0  0  0  0  0  0  0  0  0
   20.7216   18.7105   21.4827 C   0  0  0  0  0  0  0  0  0  0  0  0
   20.5799   17.6212   21.4640 H   0  0  0  0  0  0  0  0  0  0  0  0
   21.1007   18.9911   20.4905 H   0  0  0  0  0  0  0  0  0  0  0  0
   21.7803   19.0804   22.5461 C   0  0  0  0  0  0  0  0  0  0  0  0
   21.4578   18.7361   23.5374 H   0  0  0  0  0  0  0  0  0  0  0  0
   21.8823   20.1729   22.6031 H   0  0  0  0  0  0  0  0  0  0  0  0
   23.1513   18.4546   22.2202 C   0  0  0  0  0  0  0  0  0  0  0  0
   23.0840   17.3593   22.1838 H   0  0  0  0  0  0  0  0  0  0  0  0
   23.8909   18.7235   22.9856 H   0  0  0  0  0  0  0  0  0  0  0  0
   23.5243   18.8078   21.2499 H   0  0  0  0  0  0  0  0  0  0  0  0
  1  2  1  0  0  0  0
  1  3  2  0  0  0  0
  1  4  1  0  0  0  0
  4  5  1  0  0  0  0
  4  6  1  0  0  0  0
  4  7  1  0  0  0  0
  7  8  1  0  0  0  0
  7  9  1  0  0  0  0
  7 10  1  0  0  0  0
 10 11  1  0  0  0  0
 10 12  1  0  0  0  0
 10 13  1  0  0  0  0
 13 14  1  0  0  0  0
 13 15  1  0  0  0  0
 13 16  1  0  0  0  0
 16 17  1  0  0  0  0
 16 18  1  0  0  0  0
 16 19  1  0  0  0  0
 19 20  1  0  0  0  0
 19 21  1  0  0  0  0
 19 22  1  0  0  0  0
M  END
> <VConfSearch Rank>
871

> <Conf_Id>
53

> <Delta U+W>
0.723

> <U+W>
-52.436

> <U>
8.587

> <W>
-61.022

> <W(PB)>
-63.285

> <W(SA)>
2.263

> <Valence>
7.933

> <Coulomb>
-0.124

> <VdW>
0.778

> <VdW6>
-7.981

> <VdW12>
8.759

> <Bond>
0.160

> <Angle>
2.698

> <Pdih>
5.074

> <Idih>
0.001

> <Tether>
0.000

$$$$
VeraChem MOL file


 22 21  0  0  0  0  0  0  0  0999 V2000     
   22.2740   20.4823   23.9681 C   0  0  0  0  0  0  0  0  0  0  0  0
   23.2768   19.8057   23.8539 O   0  5  0  0  0  0  0  0  0  0  0  0
   22.2513   21.5631   24.5231 O   0  0  0  0  0  0  0  0  0  0  0  0
   20.9774   19.9568   23.3624 C   0  0  0  0  0  0  0  0  0  0  0  0
   20.1427   20.3280   23.9688 H   0  0  0  0  0  0  0  0  0  0  0  0
   20.9899   18.8646   23.4499 H   0  0  0  0  0  0  0  0  0  0  0  0
   20.7932   20.3764   21.8821 C   0  0  0  0  0  0  0  0  0  0  0  0
   20.9223   21.4649   21.8062 H   0  0  0  0  0  0  0  0  0  0  0  0
   21.5942   19.9291   21.2775 H   0  0  0  0  0  0  0  0  0  0  0  0
   19.4162   20.0018   21.2786 C   0  0  0  0  0  0  0  0  0  0  0  0
   19.3888   20.3906   20.2515 H   0  0  0  0  0  0  0  0  0  0  0  0
   18.6135   20.5243   21.8167 H   0  0  0  0  0  0  0  0  0  0  0  0
   19.1265   18.4802   21.2263 C   0  0  0  0  0  0  0  0  0  0  0  0
   18.5709   18.2633   20.3036 H   0  0  0  0  0  0  0  0  0  0  0  0
   20.0681   17.9189   21.1549 H   0  0  0  0  0  0  0  0  0  0  0  0
   18.2871   17.9746   22.4224 C   0  0  0  0  0  0  0  0  0  0  0  0
   17.3250   18.5047   22.4463 H   0  0  0  0  0  0  0  0  0  0  0  0
   18.7915   18.1974   23.3701 H   0  0  0  0  0  0  0  0  0  0  0  0
   18.0294   16.4572   22.3307 C   0  0  0  0  0  0  0  0  0  0  0  0
   17.4880   16.2052   21.4094 H   0  0  0  0  0  0  0  0  0  0  0  0
   17.4270   16.1150   23.1822 H   0  0  0  0  0  0  0  0  0  0  0  0
   18.9741   15.8979   22.3373 H   0  0  0  0  0  0  0  0  0  0  0  0
  1  2  1  0  0  0  0
  1  3  2  0  0  0  0
  1  4  1  0  0  0  0
  4  5  1  0  0  0  0
  4  6  1  0  0  0  0
  4  7  1  0  0  0  0
  7  8  1  0  0  0  0
  7  9  1  0  0  0  0
  7 10  1  0  0  0  0
 10 11  1  0  0  0  0
 10 12  1  0  0  0  0
 10 13  1  0  0  0  0
 13 14  1  0  0  0  0
 13 15  1  0  0  0  0
 13 16  1  0  0  0  0
 16 17  1  0  0  0  0
 16 18  1  0  0  0  0
 16 19  1  0  0  0  0
 19 20  1  0  0  0  0
 19 21  1  0  0  0  0
 19 22  1  0  0  0  0
M  END
> <VConfSearch Rank>
872

> <Conf_Id>
5

> <Delta U+W>
2.167

> <U+W>
-50.993

> <U>
10.045

> <W>
-61.037

> <W(PB)>
-63.303

> <W(SA)>
2.266

> <Valence>
10.100

> <Coulomb>
-0.883

> <VdW>
0.828

> <VdW6>
-8.177

> <VdW12>
9.005

> <Bond>
0.182

> <Angle>
2.988

> <Pdih>
6.930

> <Idih>
0.001

> <Tether>
0.000

$$$$
VeraChem MOL file


 22 21  0  0  0  0  0  0  0  0999 V2000     
   17.7070   20.1767   24.5572 C   0  0  0  0  0  0  0  0  0  0  0  0
   17.5132   19.3614   25.4371 O   0  5  0  0  0  0  0  0  0  0  0  0
   17.1246   21.2408   24.4859 O   0  0  0  0  0  0  0  0  0  0  0  0
   18.7201   19.8364   23.4700 C   0  0  0  0  0  0  0  0  0  0  0  0
   19.5128   19.2372   23.9319 H   0  0  0  0  0  0  0  0  0  0  0  0
   19.1731   20.7720   23.1211 H   0  0  0  0  0  0  0  0  0  0  0  0
   18.0892   19.0696   22.2804 C   0  0  0  0  0  0  0  0  0  0  0  0
   17.7121   18.1003   22.6347 H   0  0  0  0  0  0  0  0  0  0  0  0
   17.2125   19.6294   21.9262 H   0  0  0  0  0  0  0  0  0  0  0  0
   19.0472   18.8480   21.0830 C   0  0  0  0  0  0  0  0  0  0  0  0
   19.3517   19.8148   20.6593 H   0  0  0  0  0  0  0  0  0  0  0  0
   18.4763   18.3424   20.2922 H   0  0  0  0  0  0  0  0  0  0  0  0
   20.2939   17.9854   21.4046 C   0  0  0  0  0  0  0  0  0  0  0  0
   20.0706   17.2906   22.2257 H   0  0  0  0  0  0  0  0  0  0  0  0
   20.5202   17.3610   20.5293 H   0  0  0  0  0  0  0  0  0  0  0  0
   21.5507   18.8234   21.7345 C   0  0  0  0  0  0  0  0  0  0  0  0
   21.3604   19.4860   22.5872 H   0  0  0  0  0  0  0  0  0  0  0  0
   21.7947   19.4713   20.8813 H   0  0  0  0  0  0  0  0  0  0  0  0
   22.7621   17.9242   22.0529 C   0  0  0  0  0  0  0  0  0  0  0  0
   22.5592   17.2866   22.9234 H   0  0  0  0  0  0  0  0  0  0  0  0
   23.6473   18.5331   22.2778 H   0  0  0  0  0  0  0  0  0  0  0  0
   23.0046   17.2751   21.2013 H   0  0  0  0  0  0  0  0  0  0  0  0
  1  2  1  0  0  0  0
  1  3  2  0  0  0  0
  1  4  1  0  0  0  0
  4  5  1  0  0  0  0
  4  6  1  0  0  0  0
  4  7  1  0  0  0  0
  7  8  1  0  0  0  0
  7  9  1  0  0  0  0
  7 10  1  0  0  0  0
 10 11  1  0  0  0  0
 10 12  1  0  0  0  0
 10 13  1  0  0  0  0
 13 14  1  0  0  0  0
 13 15  1  0  0  0  0
 13 16  1  0  0  0  0
 16 17  1  0  0  0  0
 16 18  1  0  0  0  0
 16 19  1  0  0  0  0
 19 20  1  0  0  0  0
 19 21  1  0  0  0  0
 19 22  1  0  0  0  0
M  END
> <VConfSearch Rank>
873

> <Conf_Id>
6

> <Delta U+W>
2.118

> <U+W>
-51.042

> <U>
10.045

> <W>
-61.086

> <W(PB)>
-63.356

> <W(SA)>
2.270

> <Valence>
10.100

> <Coulomb>
-0.883

> <VdW>
0.828

> <VdW6>
-8.177

> <VdW12>
9.004

> <Bond>
0.182

> <Angle>
2.988

> <Pdih>
6.930

> <Idih>
0.001

> <Tether>
0.000

$$$$
VeraChem MOL file


 22 21  0  0  0  0  0  0  0  0999 V2000     
   17.0291   18.9486   21.8937 C   0  0  0  0  0  0  0  0  0  0  0  0
   16.6125   17.8348   22.1454 O   0  5  0  0  0  0  0  0  0  0  0  0
   17.1934   19.3630   20.7631 O   0  0  0  0  0  0  0  0  0  0  0  0
   17.2937   19.9037   23.0561 C   0  0  0  0  0  0  0  0  0  0  0  0
   16.3271   20.0672   23.5466 H   0  0  0  0  0  0  0  0  0  0  0  0
   17.6102   20.8743   22.6552 H   0  0  0  0  0  0  0  0  0  0  0  0
   18.3169   19.3975   24.1115 C   0  0  0  0  0  0  0  0  0  0  0  0
   18.1517   19.9597   25.0405 H   0  0  0  0  0  0  0  0  0  0  0  0
   18.1143   18.3453   24.3551 H   0  0  0  0  0  0  0  0  0  0  0  0
   19.8030   19.5736   23.7120 C   0  0  0  0  0  0  0  0  0  0  0  0
   20.4229   19.3301   24.5857 H   0  0  0  0  0  0  0  0  0  0  0  0
   20.0004   20.6286   23.4779 H   0  0  0  0  0  0  0  0  0  0  0  0
   20.2463   18.6868   22.5264 C   0  0  0  0  0  0  0  0  0  0  0  0
   19.9559   17.6444   22.7164 H   0  0  0  0  0  0  0  0  0  0  0  0
   19.7302   19.0025   21.6110 H   0  0  0  0  0  0  0  0  0  0  0  0
   21.7700   18.7650   22.2940 C   0  0  0  0  0  0  0  0  0  0  0  0
   22.3010   18.4429   23.2005 H   0  0  0  0  0  0  0  0  0  0  0  0
   22.0623   19.8073   22.1056 H   0  0  0  0  0  0  0  0  0  0  0  0
   22.2089   17.8868   21.1051 C   0  0  0  0  0  0  0  0  0  0  0  0
   21.9562   16.8330   21.2813 H   0  0  0  0  0  0  0  0  0  0  0  0
   23.2939   17.9547   20.9532 H   0  0  0  0  0  0  0  0  0  0  0  0
   21.7157   18.2069   20.1778 H   0  0  0  0  0  0  0  0  0  0  0  0
  1  2  1  0  0  0  0
  1  3  2  0  0  0  0
  1  4  1  0  0  0  0
  4  5  1  0  0  0  0
  4  6  1  0  0  0  0
  4  7  1  0  0  0  0
  7  8  1  0  0  0  0
  7  9  1  0  0  0  0
  7 10  1  0  0  0  0
 10 11  1  0  0  0  0
 10 12  1  0  0  0  0
 10 13  1  0  0  0  0
 13 14  1  0  0  0  0
 13 15  1  0  0  0  0
 13 16  1  0  0  0  0
 16 17  1  0  0  0  0
 16 18  1  0  0  0  0
 16 19  1  0  0  0  0
 19 20  1  0  0  0  0
 19 21  1  0  0  0  0
 19 22  1  0  0  0  0
M  END
> <VConfSearch Rank>
874

> <Conf_Id>
8

> <Delta U+W>
1.886

> <U+W>
-51.274

> <U>
11.237

> <W>
-62.510

> <W(PB)>
-64.777

> <W(SA)>
2.267

> <Valence>
9.029

> <Coulomb>
1.667

> <VdW>
0.540

> <VdW6>
-8.825

> <VdW12>
9.365

> <Bond>
0.186

> <Angle>
3.195

> <Pdih>
5.642

> <Idih>
0.007

> <Tether>
0.000

$$$$
VeraChem MOL file


 22 21  0  0  0  0  0  0  0  0999 V2000     
   20.2024   18.9832   25.4972 C   0  0  0  0  0  0  0  0  0  0  0  0
   19.3426   18.1375   25.6461 O   0  5  0  0  0  0  0  0  0  0  0  0
   20.2879   19.9828   26.1835 O   0  0  0  0  0  0  0  0  0  0  0  0
   21.2508   18.7660   24.4096 C   0  0  0  0  0  0  0  0  0  0  0  0
   21.2071   17.7209   24.0831 H   0  0  0  0  0  0  0  0  0  0  0  0
   22.2344   18.9036   24.8738 H   0  0  0  0  0  0  0  0  0  0  0  0
   21.1174   19.7276   23.1969 C   0  0  0  0  0  0  0  0  0  0  0  0
   21.2456   20.7595   23.5521 H   0  0  0  0  0  0  0  0  0  0  0  0
   21.9414   19.5396   22.4955 H   0  0  0  0  0  0  0  0  0  0  0  0
   19.7703   19.6272   22.4393 C   0  0  0  0  0  0  0  0  0  0  0  0
   19.7546   20.4112   21.6719 H   0  0  0  0  0  0  0  0  0  0  0  0
   18.9414   19.8487   23.1255 H   0  0  0  0  0  0  0  0  0  0  0  0
   19.5389   18.2485   21.7736 C   0  0  0  0  0  0  0  0  0  0  0  0
   20.3756   18.0145   21.1015 H   0  0  0  0  0  0  0  0  0  0  0  0
   19.5301   17.4697   22.5471 H   0  0  0  0  0  0  0  0  0  0  0  0
   18.2067   18.1593   20.9930 C   0  0  0  0  0  0  0  0  0  0  0  0
   17.3693   18.4082   21.6594 H   0  0  0  0  0  0  0  0  0  0  0  0
   18.0533   17.1178   20.6784 H   0  0  0  0  0  0  0  0  0  0  0  0
   18.1650   19.0647   19.7427 C   0  0  0  0  0  0  0  0  0  0  0  0
   18.1922   20.1271   20.0146 H   0  0  0  0  0  0  0  0  0  0  0  0
   17.2416   18.8917   19.1749 H   0  0  0  0  0  0  0  0  0  0  0  0
   19.0139   18.8567   19.0784 H   0  0  0  0  0  0  0  0  0  0  0  0
  1  2  1  0  0  0  0
  1  3  2  0  0  0  0
  1  4  1  0  0  0  0
  4  5  1  0  0  0  0
  4  6  1  0  0  0  0
  4  7  1  0  0  0  0
  7  8  1  0  0  0  0
  7  9  1  0  0  0  0
  7 10  1  0  0  0  0
 10 11  1  0  0  0  0
 10 12  1  0  0  0  0
 10 13  1  0  0  0  0
 13 14  1  0  0  0  0
 13 15  1  0  0  0  0
 13 16  1  0  0  0  0
 16 17  1  0  0  0  0
 16 18  1  0  0  0  0
 16 19  1  0  0  0  0
 19 20  1  0  0  0  0
 19 21  1  0  0  0  0
 19 22  1  0  0  0  0
M  END
> <VConfSearch Rank>
875

> <Conf_Id>
93

> <Delta U+W>
1.836

> <U+W>
-51.323

> <U>
10.427

> <W>
-61.751

> <W(PB)>
-63.980

> <W(SA)>
2.230

> <Valence>
8.446

> <Coulomb>
1.306

> <VdW>
0.676

> <VdW6>
-8.928

> <VdW12>
9.604

> <Bond>
0.209

> <Angle>
3.066

> <Pdih>
5.170

> <Idih>
0.001

> <Tether>
0.000

$$$$
VeraChem MOL file


 22 21  0  0  0  0  0  0  0  0999 V2000     
   20.1380   21.4819   24.3919 C   0  0  0  0  0  0  0  0  0  0  0  0
   20.7940   21.4423   25.4144 O   0  5  0  0  0  0  0  0  0  0  0  0
   18.9437   21.7047   24.3680 O   0  0  0  0  0  0  0  0  0  0  0  0
   20.8614   21.2696   23.0649 C   0  0  0  0  0  0  0  0  0  0  0  0
   21.7331   21.9343   23.0597 H   0  0  0  0  0  0  0  0  0  0  0  0
   20.2100   21.6083   22.2515 H   0  0  0  0  0  0  0  0  0  0  0  0
   21.3297   19.8084   22.8229 C   0  0  0  0  0  0  0  0  0  0  0  0
   21.8870   19.7603   21.8776 H   0  0  0  0  0  0  0  0  0  0  0  0
   22.0414   19.5328   23.6134 H   0  0  0  0  0  0  0  0  0  0  0  0
   20.1886   18.7616   22.7955 C   0  0  0  0  0  0  0  0  0  0  0  0
   19.6474   18.7776   23.7514 H   0  0  0  0  0  0  0  0  0  0  0  0
   20.6441   17.7666   22.7145 H   0  0  0  0  0  0  0  0  0  0  0  0
   19.1902   18.9685   21.6302 C   0  0  0  0  0  0  0  0  0  0  0  0
   18.7179   19.9545   21.7286 H   0  0  0  0  0  0  0  0  0  0  0  0
   19.7301   18.9729   20.6736 H   0  0  0  0  0  0  0  0  0  0  0  0
   18.0679   17.9052   21.5868 C   0  0  0  0  0  0  0  0  0  0  0  0
   17.3298   18.2047   20.8300 H   0  0  0  0  0  0  0  0  0  0  0  0
   17.5362   17.8881   22.5483 H   0  0  0  0  0  0  0  0  0  0  0  0
   18.5771   16.4874   21.2471 C   0  0  0  0  0  0  0  0  0  0  0  0
   19.2261   16.0930   22.0388 H   0  0  0  0  0  0  0  0  0  0  0  0
   19.1421   16.4879   20.3059 H   0  0  0  0  0  0  0  0  0  0  0  0
   17.7336   15.7941   21.1343 H   0  0  0  0  0  0  0  0  0  0  0  0
  1  2  1  0  0  0  0
  1  3  2  0  0  0  0
  1  4  1  0  0  0  0
  4  5  1  0  0  0  0
  4  6  1  0  0  0  0
  4  7  1  0  0  0  0
  7  8  1  0  0  0  0
  7  9  1  0  0  0  0
  7 10  1  0  0  0  0
 10 11  1  0  0  0  0
 10 12  1  0  0  0  0
 10 13  1  0  0  0  0
 13 14  1  0  0  0  0
 13 15  1  0  0  0  0
 13 16  1  0  0  0  0
 16 17  1  0  0  0  0
 16 18  1  0  0  0  0
 16 19  1  0  0  0  0
 19 20  1  0  0  0  0
 19 21  1  0  0  0  0
 19 22  1  0  0  0  0
M  END
> <VConfSearch Rank>
876

> <Conf_Id>
70

> <Delta U+W>
1.803

> <U+W>
-51.356

> <U>
10.428

> <W>
-61.784

> <W(PB)>
-64.014

> <W(SA)>
2.230

> <Valence>
8.445

> <Coulomb>
1.306

> <VdW>
0.676

> <VdW6>
-8.929

> <VdW12>
9.605

> <Bond>
0.209

> <Angle>
3.066

> <Pdih>
5.170

> <Idih>
0.001

> <Tether>
0.000

$$$$
VeraChem MOL file


 22 21  0  0  0  0  0  0  0  0999 V2000     
   18.4536   16.5311   24.2156 C   0  0  0  0  0  0  0  0  0  0  0  0
   18.7467   16.8358   25.3550 O   0  5  0  0  0  0  0  0  0  0  0  0
   18.7740   15.4797   23.6972 O   0  0  0  0  0  0  0  0  0  0  0  0
   17.6195   17.5152   23.4001 C   0  0  0  0  0  0  0  0  0  0  0  0
   16.8092   17.8731   24.0461 H   0  0  0  0  0  0  0  0  0  0  0  0
   17.1486   16.9725   22.5716 H   0  0  0  0  0  0  0  0  0  0  0  0
   18.4242   18.7259   22.8598 C   0  0  0  0  0  0  0  0  0  0  0  0
   17.7278   19.4417   22.4028 H   0  0  0  0  0  0  0  0  0  0  0  0
   18.9011   19.2409   23.7041 H   0  0  0  0  0  0  0  0  0  0  0  0
   19.4883   18.3108   21.8159 C   0  0  0  0  0  0  0  0  0  0  0  0
   19.0025   17.7222   21.0257 H   0  0  0  0  0  0  0  0  0  0  0  0
   20.2305   17.6485   22.2826 H   0  0  0  0  0  0  0  0  0  0  0  0
   20.2098   19.5122   21.1604 C   0  0  0  0  0  0  0  0  0  0  0  0
   20.8516   19.1342   20.3529 H   0  0  0  0  0  0  0  0  0  0  0  0
   19.4703   20.1719   20.6863 H   0  0  0  0  0  0  0  0  0  0  0  0
   21.0750   20.3250   22.1498 C   0  0  0  0  0  0  0  0  0  0  0  0
   21.7790   19.6554   22.6628 H   0  0  0  0  0  0  0  0  0  0  0  0
   20.4410   20.7772   22.9237 H   0  0  0  0  0  0  0  0  0  0  0  0
   21.8603   21.4401   21.4302 C   0  0  0  0  0  0  0  0  0  0  0  0
   22.5354   21.0200   20.6732 H   0  0  0  0  0  0  0  0  0  0  0  0
   22.4668   22.0097   22.1462 H   0  0  0  0  0  0  0  0  0  0  0  0
   21.1783   22.1406   20.9307 H   0  0  0  0  0  0  0  0  0  0  0  0
  1  2  1  0  0  0  0
  1  3  2  0  0  0  0
  1  4  1  0  0  0  0
  4  5  1  0  0  0  0
  4  6  1  0  0  0  0
  4  7  1  0  0  0  0
  7  8  1  0  0  0  0
  7  9  1  0  0  0  0
  7 10  1  0  0  0  0
 10 11  1  0  0  0  0
 10 12  1  0  0  0  0
 10 13  1  0  0  0  0
 13 14  1  0  0  0  0
 13 15  1  0  0  0  0
 13 16  1  0  0  0  0
 16 17  1  0  0  0  0
 16 18  1  0  0  0  0
 16 19  1  0  0  0  0
 19 20  1  0  0  0  0
 19 21  1  0  0  0  0
 19 22  1  0  0  0  0
M  END
> <VConfSearch Rank>
877

> <Conf_Id>
85

> <Delta U+W>
0.707

> <U+W>
-52.452

> <U>
8.925

> <W>
-61.378

> <W(PB)>
-63.661

> <W(SA)>
2.283

> <Valence>
7.881

> <Coulomb>
0.349

> <VdW>
0.695

> <VdW6>
-8.049

> <VdW12>
8.743

> <Bond>
0.156

> <Angle>
2.660

> <Pdih>
5.064

> <Idih>
0.001

> <Tether>
0.000

$$$$
VeraChem MOL file


 22 21  0  0  0  0  0  0  0  0999 V2000     
   22.1429   21.3141   22.3563 C   0  0  0  0  0  0  0  0  0  0  0  0
   22.0834   21.9957   21.3519 O   0  5  0  0  0  0  0  0  0  0  0  0
   22.2200   21.7754   23.4780 O   0  0  0  0  0  0  0  0  0  0  0  0
   22.1446   19.7958   22.2012 C   0  0  0  0  0  0  0  0  0  0  0  0
   22.9439   19.4030   22.8407 H   0  0  0  0  0  0  0  0  0  0  0  0
   22.4150   19.5488   21.1674 H   0  0  0  0  0  0  0  0  0  0  0  0
   20.8010   19.1194   22.5793 C   0  0  0  0  0  0  0  0  0  0  0  0
   20.9514   18.0326   22.5867 H   0  0  0  0  0  0  0  0  0  0  0  0
   20.5189   19.4130   23.5999 H   0  0  0  0  0  0  0  0  0  0  0  0
   19.6604   19.4709   21.5962 C   0  0  0  0  0  0  0  0  0  0  0  0
   19.9138   19.0972   20.5948 H   0  0  0  0  0  0  0  0  0  0  0  0
   19.5858   20.5632   21.5058 H   0  0  0  0  0  0  0  0  0  0  0  0
   18.2709   18.9266   22.0129 C   0  0  0  0  0  0  0  0  0  0  0  0
   17.9661   19.3675   22.9719 H   0  0  0  0  0  0  0  0  0  0  0  0
   17.5412   19.2857   21.2745 H   0  0  0  0  0  0  0  0  0  0  0  0
   18.1711   17.3819   22.0765 C   0  0  0  0  0  0  0  0  0  0  0  0
   18.8908   16.9245   21.3836 H   0  0  0  0  0  0  0  0  0  0  0  0
   17.1749   17.0798   21.7251 H   0  0  0  0  0  0  0  0  0  0  0  0
   18.3657   16.8173   23.5014 C   0  0  0  0  0  0  0  0  0  0  0  0
   19.3506   17.0699   23.9100 H   0  0  0  0  0  0  0  0  0  0  0  0
   18.2754   15.7234   23.4964 H   0  0  0  0  0  0  0  0  0  0  0  0
   17.6039   17.2136   24.1853 H   0  0  0  0  0  0  0  0  0  0  0  0
  1  2  1  0  0  0  0
  1  3  2  0  0  0  0
  1  4  1  0  0  0  0
  4  5  1  0  0  0  0
  4  6  1  0  0  0  0
  4  7  1  0  0  0  0
  7  8  1  0  0  0  0
  7  9  1  0  0  0  0
  7 10  1  0  0  0  0
 10 11  1  0  0  0  0
 10 12  1  0  0  0  0
 10 13  1  0  0  0  0
 13 14  1  0  0  0  0
 13 15  1  0  0  0  0
 13 16  1  0  0  0  0
 16 17  1  0  0  0  0
 16 18  1  0  0  0  0
 16 19  1  0  0  0  0
 19 20  1  0  0  0  0
 19 21  1  0  0  0  0
 19 22  1  0  0  0  0
M  END
> <VConfSearch Rank>
878

> <Conf_Id>
82

> <Delta U+W>
3.438

> <U+W>
-49.721

> <U>
11.773

> <W>
-61.495

> <W(PB)>
-63.749

> <W(SA)>
2.254

> <Valence>
10.419

> <Coulomb>
0.565

> <VdW>
0.789

> <VdW6>
-8.847

> <VdW12>
9.636

> <Bond>
0.200

> <Angle>
3.187

> <Pdih>
7.032

> <Idih>
0.001

> <Tether>
0.000

$$$$
VeraChem MOL file


 22 21  0  0  0  0  0  0  0  0999 V2000     
   17.0582   17.2217   22.6653 C   0  0  0  0  0  0  0  0  0  0  0  0
   17.1593   16.4512   23.5997 O   0  5  0  0  0  0  0  0  0  0  0  0
   16.0860   17.9263   22.4775 O   0  0  0  0  0  0  0  0  0  0  0  0
   18.2059   17.2897   21.6616 C   0  0  0  0  0  0  0  0  0  0  0  0
   17.8346   17.7419   20.7340 H   0  0  0  0  0  0  0  0  0  0  0  0
   18.4903   16.2587   21.4203 H   0  0  0  0  0  0  0  0  0  0  0  0
   19.4496   18.0624   22.1735 C   0  0  0  0  0  0  0  0  0  0  0  0
   19.7821   17.6285   23.1266 H   0  0  0  0  0  0  0  0  0  0  0  0
   20.2649   17.9207   21.4531 H   0  0  0  0  0  0  0  0  0  0  0  0
   19.1798   19.5748   22.3492 C   0  0  0  0  0  0  0  0  0  0  0  0
   18.2929   19.7119   22.9828 H   0  0  0  0  0  0  0  0  0  0  0  0
   18.9313   20.0167   21.3746 H   0  0  0  0  0  0  0  0  0  0  0  0
   20.3529   20.3605   22.9871 C   0  0  0  0  0  0  0  0  0  0  0  0
   20.0236   21.4011   23.1116 H   0  0  0  0  0  0  0  0  0  0  0  0
   20.5488   19.9867   24.0014 H   0  0  0  0  0  0  0  0  0  0  0  0
   21.6596   20.3652   22.1551 C   0  0  0  0  0  0  0  0  0  0  0  0
   22.1394   21.3481   22.2605 H   0  0  0  0  0  0  0  0  0  0  0  0
   21.4316   20.2501   21.0864 H   0  0  0  0  0  0  0  0  0  0  0  0
   22.6726   19.2893   22.6061 C   0  0  0  0  0  0  0  0  0  0  0  0
   22.9622   19.4413   23.6540 H   0  0  0  0  0  0  0  0  0  0  0  0
   23.5835   19.3398   21.9956 H   0  0  0  0  0  0  0  0  0  0  0  0
   22.2627   18.2774   22.5124 H   0  0  0  0  0  0  0  0  0  0  0  0
  1  2  1  0  0  0  0
  1  3  2  0  0  0  0
  1  4  1  0  0  0  0
  4  5  1  0  0  0  0
  4  6  1  0  0  0  0
  4  7  1  0  0  0  0
  7  8  1  0  0  0  0
  7  9  1  0  0  0  0
  7 10  1  0  0  0  0
 10 11  1  0  0  0  0
 10 12  1  0  0  0  0
 10 13  1  0  0  0  0
 13 14  1  0  0  0  0
 13 15  1  0  0  0  0
 13 16  1  0  0  0  0
 16 17  1  0  0  0  0
 16 18  1  0  0  0  0
 16 19  1  0  0  0  0
 19 20  1  0  0  0  0
 19 21  1  0  0  0  0
 19 22  1  0  0  0  0
M  END
> <VConfSearch Rank>
879

> <Conf_Id>
94

> <Delta U+W>
3.471

> <U+W>
-49.688

> <U>
11.773

> <W>
-61.461

> <W(PB)>
-63.710

> <W(SA)>
2.248

> <Valence>
10.419

> <Coulomb>
0.566

> <VdW>
0.789

> <VdW6>
-8.847

> <VdW12>
9.636

> <Bond>
0.200

> <Angle>
3.187

> <Pdih>
7.032

> <Idih>
0.001

> <Tether>
0.000

$$$$
VeraChem MOL file


 22 21  0  0  0  0  0  0  0  0999 V2000     
   17.9635   16.3238   22.3594 C   0  0  0  0  0  0  0  0  0  0  0  0
   17.6394   15.5569   23.2446 O   0  5  0  0  0  0  0  0  0  0  0  0
   18.0902   15.9939   21.1968 O   0  0  0  0  0  0  0  0  0  0  0  0
   18.2451   17.7750   22.7317 C   0  0  0  0  0  0  0  0  0  0  0  0
   17.5896   18.0460   23.5678 H   0  0  0  0  0  0  0  0  0  0  0  0
   17.9597   18.4000   21.8779 H   0  0  0  0  0  0  0  0  0  0  0  0
   19.7280   18.0197   23.1134 C   0  0  0  0  0  0  0  0  0  0  0  0
   20.0059   17.3218   23.9152 H   0  0  0  0  0  0  0  0  0  0  0  0
   20.3729   17.7733   22.2595 H   0  0  0  0  0  0  0  0  0  0  0  0
   20.0118   19.4644   23.5957 C   0  0  0  0  0  0  0  0  0  0  0  0
   21.0657   19.5384   23.8946 H   0  0  0  0  0  0  0  0  0  0  0  0
   19.4304   19.6541   24.5081 H   0  0  0  0  0  0  0  0  0  0  0  0
   19.6927   20.5794   22.5651 C   0  0  0  0  0  0  0  0  0  0  0  0
   18.6096   20.6123   22.3888 H   0  0  0  0  0  0  0  0  0  0  0  0
   19.9501   21.5504   23.0093 H   0  0  0  0  0  0  0  0  0  0  0  0
   20.4188   20.4459   21.2038 C   0  0  0  0  0  0  0  0  0  0  0  0
   20.0964   21.2699   20.5526 H   0  0  0  0  0  0  0  0  0  0  0  0
   20.1093   19.5210   20.6992 H   0  0  0  0  0  0  0  0  0  0  0  0
   21.9574   20.4829   21.3271 C   0  0  0  0  0  0  0  0  0  0  0  0
   22.2882   21.3930   21.8441 H   0  0  0  0  0  0  0  0  0  0  0  0
   22.4230   20.4695   20.3333 H   0  0  0  0  0  0  0  0  0  0  0  0
   22.3335   19.6148   21.8828 H   0  0  0  0  0  0  0  0  0  0  0  0
  1  2  1  0  0  0  0
  1  3  2  0  0  0  0
  1  4  1  0  0  0  0
  4  5  1  0  0  0  0
  4  6  1  0  0  0  0
  4  7  1  0  0  0  0
  7  8  1  0  0  0  0
  7  9  1  0  0  0  0
  7 10  1  0  0  0  0
 10 11  1  0  0  0  0
 10 12  1  0  0  0  0
 10 13  1  0  0  0  0
 13 14  1  0  0  0  0
 13 15  1  0  0  0  0
 13 16  1  0  0  0  0
 16 17  1  0  0  0  0
 16 18  1  0  0  0  0
 16 19  1  0  0  0  0
 19 20  1  0  0  0  0
 19 21  1  0  0  0  0
 19 22  1  0  0  0  0
M  END
> <VConfSearch Rank>
880

> <Conf_Id>
56

> <Delta U+W>
0.853

> <U+W>
-52.307

> <U>
8.874

> <W>
-61.181

> <W(PB)>
-63.413

> <W(SA)>
2.232

> <Valence>
8.479

> <Coulomb>
-0.357

> <VdW>
0.753

> <VdW6>
-9.081

> <VdW12>
9.833

> <Bond>
0.221

> <Angle>
3.208

> <Pdih>
5.050

> <Idih>
0.000

> <Tether>
0.000

$$$$
VeraChem MOL file


 22 21  0  0  0  0  0  0  0  0999 V2000     
   19.7361   17.6628   26.0001 C   0  0  0  0  0  0  0  0  0  0  0  0
   19.5930   16.4997   25.6758 O   0  5  0  0  0  0  0  0  0  0  0  0
   19.7983   18.0259   27.1578 O   0  0  0  0  0  0  0  0  0  0  0  0
   19.8460   18.7431   24.9229 C   0  0  0  0  0  0  0  0  0  0  0  0
   20.7977   19.2646   25.0787 H   0  0  0  0  0  0  0  0  0  0  0  0
   19.0472   19.4711   25.1072 H   0  0  0  0  0  0  0  0  0  0  0  0
   19.7619   18.2313   23.4603 C   0  0  0  0  0  0  0  0  0  0  0  0
   20.5609   17.4978   23.2842 H   0  0  0  0  0  0  0  0  0  0  0  0
   18.8088   17.7047   23.3126 H   0  0  0  0  0  0  0  0  0  0  0  0
   19.8815   19.3847   22.4405 C   0  0  0  0  0  0  0  0  0  0  0  0
   20.8350   19.9096   22.5900 H   0  0  0  0  0  0  0  0  0  0  0  0
   19.0817   20.1167   22.6185 H   0  0  0  0  0  0  0  0  0  0  0  0
   19.7974   18.8734   20.9862 C   0  0  0  0  0  0  0  0  0  0  0  0
   20.5969   18.1413   20.8077 H   0  0  0  0  0  0  0  0  0  0  0  0
   18.8440   18.3484   20.8362 H   0  0  0  0  0  0  0  0  0  0  0  0
   19.9169   20.0254   19.9666 C   0  0  0  0  0  0  0  0  0  0  0  0
   20.8704   20.5518   20.1123 H   0  0  0  0  0  0  0  0  0  0  0  0
   19.1174   20.7589   20.1409 H   0  0  0  0  0  0  0  0  0  0  0  0
   19.8324   19.5107   18.5157 C   0  0  0  0  0  0  0  0  0  0  0  0
   20.6404   18.7981   18.3040 H   0  0  0  0  0  0  0  0  0  0  0  0
   19.9191   20.3424   17.8045 H   0  0  0  0  0  0  0  0  0  0  0  0
   18.8742   19.0069   18.3328 H   0  0  0  0  0  0  0  0  0  0  0  0
  1  2  1  0  0  0  0
  1  3  2  0  0  0  0
  1  4  1  0  0  0  0
  4  5  1  0  0  0  0
  4  6  1  0  0  0  0
  4  7  1  0  0  0  0
  7  8  1  0  0  0  0
  7  9  1  0  0  0  0
  7 10  1  0  0  0  0
 10 11  1  0  0  0  0
 10 12  1  0  0  0  0
 10 13  1  0  0  0  0
 13 14  1  0  0  0  0
 13 15  1  0  0  0  0
 13 16  1  0  0  0  0
 16 17  1  0  0  0  0
 16 18  1  0  0  0  0
 16 19  1  0  0  0  0
 19 20  1  0  0  0  0
 19 21  1  0  0  0  0
 19 22  1  0  0  0  0
M  END
> <VConfSearch Rank>
881

> <Conf_Id>
0

> <Delta U+W>
0.000

> <U+W>
-53.159

> <U>
6.763

> <W>
-59.922

> <W(PB)>
-62.256

> <W(SA)>
2.334

> <Valence>
7.600

> <Coulomb>
-2.139

> <VdW>
1.302

> <VdW6>
-6.786

> <VdW12>
8.088

> <Bond>
0.134

> <Angle>
2.720

> <Pdih>
4.746

> <Idih>
0.000

> <Tether>
0.000

$$$$
VeraChem MOL file


 22 21  0  0  0  0  0  0  0  0999 V2000     
   19.7920   22.7616   20.7961 C   0  0  0  0  0  0  0  0  0  0  0  0
   18.8748   23.4423   21.2107 O   0  5  0  0  0  0  0  0  0  0  0  0
   20.2832   22.8940   19.6927 O   0  0  0  0  0  0  0  0  0  0  0  0
   20.3419   21.6657   21.7021 C   0  0  0  0  0  0  0  0  0  0  0  0
   20.2511   22.0050   22.7410 H   0  0  0  0  0  0  0  0  0  0  0  0
   21.4120   21.5534   21.4901 H   0  0  0  0  0  0  0  0  0  0  0  0
   19.6153   20.3108   21.5169 C   0  0  0  0  0  0  0  0  0  0  0  0
   18.5434   20.4431   21.7200 H   0  0  0  0  0  0  0  0  0  0  0  0
   19.7043   19.9915   20.4691 H   0  0  0  0  0  0  0  0  0  0  0  0
   20.1901   19.2187   22.4446 C   0  0  0  0  0  0  0  0  0  0  0  0
   20.1006   19.5415   23.4910 H   0  0  0  0  0  0  0  0  0  0  0  0
   21.2618   19.0898   22.2399 H   0  0  0  0  0  0  0  0  0  0  0  0
   19.4638   17.8693   22.2577 C   0  0  0  0  0  0  0  0  0  0  0  0
   18.3920   17.9977   22.4624 H   0  0  0  0  0  0  0  0  0  0  0  0
   19.5530   17.5461   21.2114 H   0  0  0  0  0  0  0  0  0  0  0  0
   20.0377   16.7772   23.1846 C   0  0  0  0  0  0  0  0  0  0  0  0
   19.9484   17.0960   24.2324 H   0  0  0  0  0  0  0  0  0  0  0  0
   21.1095   16.6444   22.9815 H   0  0  0  0  0  0  0  0  0  0  0  0
   19.3099   15.4313   22.9950 C   0  0  0  0  0  0  0  0  0  0  0  0
   19.4099   15.0727   21.9621 H   0  0  0  0  0  0  0  0  0  0  0  0
   18.2401   15.5278   23.2223 H   0  0  0  0  0  0  0  0  0  0  0  0
   19.7303   14.6668   23.6613 H   0  0  0  0  0  0  0  0  0  0  0  0
  1  2  1  0  0  0  0
  1  3  2  0  0  0  0
  1  4  1  0  0  0  0
  4  5  1  0  0  0  0
  4  6  1  0  0  0  0
  4  7  1  0  0  0  0
  7  8  1  0  0  0  0
  7  9  1  0  0  0  0
  7 10  1  0  0  0  0
 10 11  1  0  0  0  0
 10 12  1  0  0  0  0
 10 13  1  0  0  0  0
 13 14  1  0  0  0  0
 13 15  1  0  0  0  0
 13 16  1  0  0  0  0
 16 17  1  0  0  0  0
 16 18  1  0  0  0  0
 16 19  1  0  0  0  0
 19 20  1  0  0  0  0
 19 21  1  0  0  0  0
 19 22  1  0  0  0  0
M  END
> <VConfSearch Rank>
882

> <Conf_Id>
10

> <Delta U+W>
-1.291

> <U+W>
-54.451

> <U>
5.779

> <W>
-60.230

> <W(PB)>
-62.557

> <W(SA)>
2.328

> <Valence>
7.101

> <Coulomb>
-2.079

> <VdW>
0.757

> <VdW6>
-6.496

> <VdW12>
7.253

> <Bond>
0.100

> <Angle>
2.262

> <Pdih>
4.738

> <Idih>
0.001

> <Tether>
0.000

$$$$
VeraChem MOL file


 22 21  0  0  0  0  0  0  0  0999 V2000     
   22.2225   15.8307   22.2384 C   0  0  0  0  0  0  0  0  0  0  0  0
   23.1363   15.9256   21.4432 O   0  5  0  0  0  0  0  0  0  0  0  0
   22.2796   15.1642   23.2528 O   0  0  0  0  0  0  0  0  0  0  0  0
   20.9411   16.6078   21.9587 C   0  0  0  0  0  0  0  0  0  0  0  0
   20.0989   16.0330   22.3624 H   0  0  0  0  0  0  0  0  0  0  0  0
   20.8055   16.6614   20.8717 H   0  0  0  0  0  0  0  0  0  0  0  0
   20.9561   18.0321   22.5663 C   0  0  0  0  0  0  0  0  0  0  0  0
   21.1060   17.9612   23.6526 H   0  0  0  0  0  0  0  0  0  0  0  0
   21.8118   18.5903   22.1618 H   0  0  0  0  0  0  0  0  0  0  0  0
   19.6484   18.7977   22.2692 C   0  0  0  0  0  0  0  0  0  0  0  0
   18.7951   18.2385   22.6765 H   0  0  0  0  0  0  0  0  0  0  0  0
   19.5049   18.8564   21.1824 H   0  0  0  0  0  0  0  0  0  0  0  0
   19.6699   20.2201   22.8747 C   0  0  0  0  0  0  0  0  0  0  0  0
   19.8846   20.1477   23.9497 H   0  0  0  0  0  0  0  0  0  0  0  0
   20.4919   20.7988   22.4315 H   0  0  0  0  0  0  0  0  0  0  0  0
   18.3397   20.9868   22.6905 C   0  0  0  0  0  0  0  0  0  0  0  0
   18.3981   21.9325   23.2469 H   0  0  0  0  0  0  0  0  0  0  0  0
   17.5160   20.4139   23.1382 H   0  0  0  0  0  0  0  0  0  0  0  0
   18.0132   21.2986   21.2138 C   0  0  0  0  0  0  0  0  0  0  0  0
   17.1099   21.9182   21.1431 H   0  0  0  0  0  0  0  0  0  0  0  0
   17.8314   20.3806   20.6412 H   0  0  0  0  0  0  0  0  0  0  0  0
   18.8365   21.8456   20.7364 H   0  0  0  0  0  0  0  0  0  0  0  0
  1  2  1  0  0  0  0
  1  3  2  0  0  0  0
  1  4  1  0  0  0  0
  4  5  1  0  0  0  0
  4  6  1  0  0  0  0
  4  7  1  0  0  0  0
  7  8  1  0  0  0  0
  7  9  1  0  0  0  0
  7 10  1  0  0  0  0
 10 11  1  0  0  0  0
 10 12  1  0  0  0  0
 10 13  1  0  0  0  0
 13 14  1  0  0  0  0
 13 15  1  0  0  0  0
 13 16  1  0  0  0  0
 16 17  1  0  0  0  0
 16 18  1  0  0  0  0
 16 19  1  0  0  0  0
 19 20  1  0  0  0  0
 19 21  1  0  0  0  0
 19 22  1  0  0  0  0
M  END
> <VConfSearch Rank>
883

> <Conf_Id>
37

> <Delta U+W>
-0.345

> <U+W>
-53.504

> <U>
6.751

> <W>
-60.255

> <W(PB)>
-62.592

> <W(SA)>
2.336

> <Valence>
7.602

> <Coulomb>
-1.744

> <VdW>
0.894

> <VdW6>
-7.110

> <VdW12>
8.004

> <Bond>
0.131

> <Angle>
2.489

> <Pdih>
4.982

> <Idih>
0.001

> <Tether>
0.000

$$$$
VeraChem MOL file


 22 21  0  0  0  0  0  0  0  0999 V2000     
   21.9683   15.7837   22.4753 C   0  0  0  0  0  0  0  0  0  0  0  0
   21.3230   14.7677   22.3092 O   0  5  0  0  0  0  0  0  0  0  0  0
   22.9882   15.8332   23.1339 O   0  0  0  0  0  0  0  0  0  0  0  0
   21.4584   17.0724   21.8401 C   0  0  0  0  0  0  0  0  0  0  0  0
   20.9532   16.8132   20.9019 H   0  0  0  0  0  0  0  0  0  0  0  0
   22.3259   17.6911   21.5809 H   0  0  0  0  0  0  0  0  0  0  0  0
   20.4975   17.8599   22.7646 C   0  0  0  0  0  0  0  0  0  0  0  0
   19.6408   17.2228   23.0249 H   0  0  0  0  0  0  0  0  0  0  0  0
   21.0140   18.0997   23.7044 H   0  0  0  0  0  0  0  0  0  0  0  0
   19.9957   19.1597   22.0990 C   0  0  0  0  0  0  0  0  0  0  0  0
   19.4881   18.9094   21.1583 H   0  0  0  0  0  0  0  0  0  0  0  0
   20.8540   19.7954   21.8420 H   0  0  0  0  0  0  0  0  0  0  0  0
   19.0339   19.9401   23.0243 C   0  0  0  0  0  0  0  0  0  0  0  0
   18.1497   19.3255   23.2421 H   0  0  0  0  0  0  0  0  0  0  0  0
   19.5319   20.1208   23.9867 H   0  0  0  0  0  0  0  0  0  0  0  0
   18.5870   21.3003   22.4400 C   0  0  0  0  0  0  0  0  0  0  0  0
   19.4687   21.9203   22.2268 H   0  0  0  0  0  0  0  0  0  0  0  0
   18.0068   21.8379   23.2026 H   0  0  0  0  0  0  0  0  0  0  0  0
   17.7266   21.1649   21.1650 C   0  0  0  0  0  0  0  0  0  0  0  0
   16.8541   20.5237   21.3460 H   0  0  0  0  0  0  0  0  0  0  0  0
   18.3033   20.7362   20.3359 H   0  0  0  0  0  0  0  0  0  0  0  0
   17.3620   22.1485   20.8419 H   0  0  0  0  0  0  0  0  0  0  0  0
  1  2  1  0  0  0  0
  1  3  2  0  0  0  0
  1  4  1  0  0  0  0
  4  5  1  0  0  0  0
  4  6  1  0  0  0  0
  4  7  1  0  0  0  0
  7  8  1  0  0  0  0
  7  9  1  0  0  0  0
  7 10  1  0  0  0  0
 10 11  1  0  0  0  0
 10 12  1  0  0  0  0
 10 13  1  0  0  0  0
 13 14  1  0  0  0  0
 13 15  1  0  0  0  0
 13 16  1  0  0  0  0
 16 17  1  0  0  0  0
 16 18  1  0  0  0  0
 16 19  1  0  0  0  0
 19 20  1  0  0  0  0
 19 21  1  0  0  0  0
 19 22  1  0  0  0  0
M  END
> <VConfSearch Rank>
884

> <Conf_Id>
38

> <Delta U+W>
-0.439

> <U+W>
-53.598

> <U>
6.751

> <W>
-60.350

> <W(PB)>
-62.659

> <W(SA)>
2.309

> <Valence>
7.602

> <Coulomb>
-1.744

> <VdW>
0.893

> <VdW6>
-7.110

> <VdW12>
8.004

> <Bond>
0.131

> <Angle>
2.489

> <Pdih>
4.981

> <Idih>
0.001

> <Tether>
0.000

$$$$
VeraChem MOL file


 22 21  0  0  0  0  0  0  0  0999 V2000     
   16.1016   18.9160   22.2501 C   0  0  0  0  0  0  0  0  0  0  0  0
   15.4500   18.2757   23.0513 O   0  5  0  0  0  0  0  0  0  0  0  0
   15.6692   19.2917   21.1784 O   0  0  0  0  0  0  0  0  0  0  0  0
   17.5484   19.2467   22.5991 C   0  0  0  0  0  0  0  0  0  0  0  0
   17.6171   19.3652   23.6870 H   0  0  0  0  0  0  0  0  0  0  0  0
   17.7850   20.2177   22.1501 H   0  0  0  0  0  0  0  0  0  0  0  0
   18.5450   18.1612   22.1152 C   0  0  0  0  0  0  0  0  0  0  0  0
   18.2196   17.1870   22.5057 H   0  0  0  0  0  0  0  0  0  0  0  0
   18.5028   18.0855   21.0198 H   0  0  0  0  0  0  0  0  0  0  0  0
   20.0038   18.4120   22.5665 C   0  0  0  0  0  0  0  0  0  0  0  0
   20.5977   17.5281   22.3013 H   0  0  0  0  0  0  0  0  0  0  0  0
   20.0411   18.4956   23.6611 H   0  0  0  0  0  0  0  0  0  0  0  0
   20.6390   19.6698   21.9242 C   0  0  0  0  0  0  0  0  0  0  0  0
   20.6000   19.5868   20.8295 H   0  0  0  0  0  0  0  0  0  0  0  0
   20.0478   20.5549   22.1911 H   0  0  0  0  0  0  0  0  0  0  0  0
   22.0984   19.9175   22.3722 C   0  0  0  0  0  0  0  0  0  0  0  0
   22.1434   19.9896   23.4676 H   0  0  0  0  0  0  0  0  0  0  0  0
   22.4243   20.8923   21.9839 H   0  0  0  0  0  0  0  0  0  0  0  0
   23.0840   18.8350   21.8808 C   0  0  0  0  0  0  0  0  0  0  0  0
   22.8730   17.8613   22.3398 H   0  0  0  0  0  0  0  0  0  0  0  0
   24.1146   19.1080   22.1422 H   0  0  0  0  0  0  0  0  0  0  0  0
   23.0311   18.7212   20.7902 H   0  0  0  0  0  0  0  0  0  0  0  0
  1  2  1  0  0  0  0
  1  3  2  0  0  0  0
  1  4  1  0  0  0  0
  4  5  1  0  0  0  0
  4  6  1  0  0  0  0
  4  7  1  0  0  0  0
  7  8  1  0  0  0  0
  7  9  1  0  0  0  0
  7 10  1  0  0  0  0
 10 11  1  0  0  0  0
 10 12  1  0  0  0  0
 10 13  1  0  0  0  0
 13 14  1  0  0  0  0
 13 15  1  0  0  0  0
 13 16  1  0  0  0  0
 16 17  1  0  0  0  0
 16 18  1  0  0  0  0
 16 19  1  0  0  0  0
 19 20  1  0  0  0  0
 19 21  1  0  0  0  0
 19 22  1  0  0  0  0
M  END
> <VConfSearch Rank>
885

> <Conf_Id>
60

> <Delta U+W>
0.386

> <U+W>
-52.773

> <U>
7.689

> <W>
-60.463

> <W(PB)>
-62.772

> <W(SA)>
2.309

> <Valence>
8.197

> <Coulomb>
-1.561

> <VdW>
1.053

> <VdW6>
-7.737

> <VdW12>
8.790

> <Bond>
0.181

> <Angle>
2.780

> <Pdih>
5.235

> <Idih>
0.001

> <Tether>
0.000

$$$$
VeraChem MOL file


 22 21  0  0  0  0  0  0  0  0999 V2000     
   18.7715   22.5482   22.2710 C   0  0  0  0  0  0  0  0  0  0  0  0
   17.8002   22.7005   21.5569 O   0  5  0  0  0  0  0  0  0  0  0  0
   19.4866   23.4598   22.6374 O   0  0  0  0  0  0  0  0  0  0  0  0
   19.1259   21.1328   22.7130 C   0  0  0  0  0  0  0  0  0  0  0  0
   18.1892   20.5759   22.8270 H   0  0  0  0  0  0  0  0  0  0  0  0
   19.5920   21.1928   23.7038 H   0  0  0  0  0  0  0  0  0  0  0  0
   20.0740   20.4137   21.7183 C   0  0  0  0  0  0  0  0  0  0  0  0
   19.5777   20.3157   20.7429 H   0  0  0  0  0  0  0  0  0  0  0  0
   20.9566   21.0475   21.5543 H   0  0  0  0  0  0  0  0  0  0  0  0
   20.5478   19.0238   22.2063 C   0  0  0  0  0  0  0  0  0  0  0  0
   21.0361   19.1242   23.1852 H   0  0  0  0  0  0  0  0  0  0  0  0
   21.3163   18.6636   21.5105 H   0  0  0  0  0  0  0  0  0  0  0  0
   19.4063   17.9812   22.2961 C   0  0  0  0  0  0  0  0  0  0  0  0
   18.6387   18.3386   22.9940 H   0  0  0  0  0  0  0  0  0  0  0  0
   18.9169   17.8822   21.3177 H   0  0  0  0  0  0  0  0  0  0  0  0
   19.8812   16.5909   22.7796 C   0  0  0  0  0  0  0  0  0  0  0  0
   18.9994   15.9569   22.9460 H   0  0  0  0  0  0  0  0  0  0  0  0
   20.3816   16.6873   23.7530 H   0  0  0  0  0  0  0  0  0  0  0  0
   20.8195   15.8803   21.7800 C   0  0  0  0  0  0  0  0  0  0  0  0
   20.3528   15.8036   20.7893 H   0  0  0  0  0  0  0  0  0  0  0  0
   21.0481   14.8636   22.1251 H   0  0  0  0  0  0  0  0  0  0  0  0
   21.7712   16.4151   21.6723 H   0  0  0  0  0  0  0  0  0  0  0  0
  1  2  1  0  0  0  0
  1  3  2  0  0  0  0
  1  4  1  0  0  0  0
  4  5  1  0  0  0  0
  4  6  1  0  0  0  0
  4  7  1  0  0  0  0
  7  8  1  0  0  0  0
  7  9  1  0  0  0  0
  7 10  1  0  0  0  0
 10 11  1  0  0  0  0
 10 12  1  0  0  0  0
 10 13  1  0  0  0  0
 13 14  1  0  0  0  0
 13 15  1  0  0  0  0
 13 16  1  0  0  0  0
 16 17  1  0  0  0  0
 16 18  1  0  0  0  0
 16 19  1  0  0  0  0
 19 20  1  0  0  0  0
 19 21  1  0  0  0  0
 19 22  1  0  0  0  0
M  END
> <VConfSearch Rank>
886

> <Conf_Id>
28

> <Delta U+W>
0.351

> <U+W>
-52.808

> <U>
7.689

> <W>
-60.498

> <W(PB)>
-62.768

> <W(SA)>
2.270

> <Valence>
8.197

> <Coulomb>
-1.561

> <VdW>
1.053

> <VdW6>
-7.737

> <VdW12>
8.791

> <Bond>
0.181

> <Angle>
2.780

> <Pdih>
5.235

> <Idih>
0.001

> <Tether>
0.000

$$$$
VeraChem MOL file


 22 21  0  0  0  0  0  0  0  0999 V2000     
   23.4623   17.7617   22.5476 C   0  0  0  0  0  0  0  0  0  0  0  0
   23.7312   16.6726   22.0808 O   0  5  0  0  0  0  0  0  0  0  0  0
   24.1697   18.7415   22.4210 O   0  0  0  0  0  0  0  0  0  0  0  0
   22.1553   17.9120   23.3180 C   0  0  0  0  0  0  0  0  0  0  0  0
   22.3054   18.6661   24.1000 H   0  0  0  0  0  0  0  0  0  0  0  0
   21.9452   16.9604   23.8210 H   0  0  0  0  0  0  0  0  0  0  0  0
   20.9653   18.3125   22.4115 C   0  0  0  0  0  0  0  0  0  0  0  0
   21.2076   19.2557   21.9046 H   0  0  0  0  0  0  0  0  0  0  0  0
   20.8337   17.5525   21.6289 H   0  0  0  0  0  0  0  0  0  0  0  0
   19.6549   18.4624   23.2186 C   0  0  0  0  0  0  0  0  0  0  0  0
   19.7691   19.2591   23.9665 H   0  0  0  0  0  0  0  0  0  0  0  0
   19.4722   17.5348   23.7781 H   0  0  0  0  0  0  0  0  0  0  0  0
   18.4177   18.7540   22.3366 C   0  0  0  0  0  0  0  0  0  0  0  0
   18.3007   17.9555   21.5912 H   0  0  0  0  0  0  0  0  0  0  0  0
   17.5218   18.7196   22.9715 H   0  0  0  0  0  0  0  0  0  0  0  0
   18.4762   20.1253   21.6263 C   0  0  0  0  0  0  0  0  0  0  0  0
   19.3216   20.1532   20.9263 H   0  0  0  0  0  0  0  0  0  0  0  0
   18.6461   20.9192   22.3666 H   0  0  0  0  0  0  0  0  0  0  0  0
   17.1749   20.4169   20.8523 C   0  0  0  0  0  0  0  0  0  0  0  0
   16.3104   20.4351   21.5288 H   0  0  0  0  0  0  0  0  0  0  0  0
   16.9945   19.6520   20.0857 H   0  0  0  0  0  0  0  0  0  0  0  0
   17.2332   21.3919   20.3512 H   0  0  0  0  0  0  0  0  0  0  0  0
  1  2  1  0  0  0  0
  1  3  2  0  0  0  0
  1  4  1  0  0  0  0
  4  5  1  0  0  0  0
  4  6  1  0  0  0  0
  4  7  1  0  0  0  0
  7  8  1  0  0  0  0
  7  9  1  0  0  0  0
  7 10  1  0  0  0  0
 10 11  1  0  0  0  0
 10 12  1  0  0  0  0
 10 13  1  0  0  0  0
 13 14  1  0  0  0  0
 13 15  1  0  0  0  0
 13 16  1  0  0  0  0
 16 17  1  0  0  0  0
 16 18  1  0  0  0  0
 16 19  1  0  0  0  0
 19 20  1  0  0  0  0
 19 21  1  0  0  0  0
 19 22  1  0  0  0  0
M  END
> <VConfSearch Rank>
887

> <Conf_Id>
50

> <Delta U+W>
-0.486

> <U+W>
-53.646

> <U>
7.026

> <W>
-60.672

> <W(PB)>
-62.964

> <W(SA)>
2.292

> <Valence>
7.637

> <Coulomb>
-1.488

> <VdW>
0.877

> <VdW6>
-7.165

> <VdW12>
8.043

> <Bond>
0.134

> <Angle>
2.513

> <Pdih>
4.990

> <Idih>
0.001

> <Tether>
0.000

$$$$
VeraChem MOL file


 22 21  0  0  0  0  0  0  0  0999 V2000     
   19.6092   18.5301   25.9619 C   0  0  0  0  0  0  0  0  0  0  0  0
   20.3420   17.6818   26.4307 O   0  5  0  0  0  0  0  0  0  0  0  0
   18.4568   18.6920   26.3116 O   0  0  0  0  0  0  0  0  0  0  0  0
   20.1598   19.4277   24.8593 C   0  0  0  0  0  0  0  0  0  0  0  0
   21.2304   19.5767   25.0445 H   0  0  0  0  0  0  0  0  0  0  0  0
   19.6762   20.4082   24.9448 H   0  0  0  0  0  0  0  0  0  0  0  0
   19.9378   18.8446   23.4419 C   0  0  0  0  0  0  0  0  0  0  0  0
   20.4200   17.8595   23.3754 H   0  0  0  0  0  0  0  0  0  0  0  0
   18.8623   18.6860   23.2883 H   0  0  0  0  0  0  0  0  0  0  0  0
   20.5013   19.7765   22.3441 C   0  0  0  0  0  0  0  0  0  0  0  0
   21.5584   19.9835   22.5598 H   0  0  0  0  0  0  0  0  0  0  0  0
   19.9821   20.7441   22.3766 H   0  0  0  0  0  0  0  0  0  0  0  0
   20.3996   19.1821   20.9193 C   0  0  0  0  0  0  0  0  0  0  0  0
   20.9319   19.8475   20.2259 H   0  0  0  0  0  0  0  0  0  0  0  0
   20.9221   18.2163   20.8853 H   0  0  0  0  0  0  0  0  0  0  0  0
   18.9453   19.0053   20.4273 C   0  0  0  0  0  0  0  0  0  0  0  0
   18.4071   19.9595   20.5110 H   0  0  0  0  0  0  0  0  0  0  0  0
   18.4164   18.2820   21.0617 H   0  0  0  0  0  0  0  0  0  0  0  0
   18.8986   18.5176   18.9652 C   0  0  0  0  0  0  0  0  0  0  0  0
   19.4066   17.5503   18.8578 H   0  0  0  0  0  0  0  0  0  0  0  0
   19.3860   19.2374   18.2947 H   0  0  0  0  0  0  0  0  0  0  0  0
   17.8600   18.3939   18.6318 H   0  0  0  0  0  0  0  0  0  0  0  0
  1  2  1  0  0  0  0
  1  3  2  0  0  0  0
  1  4  1  0  0  0  0
  4  5  1  0  0  0  0
  4  6  1  0  0  0  0
  4  7  1  0  0  0  0
  7  8  1  0  0  0  0
  7  9  1  0  0  0  0
  7 10  1  0  0  0  0
 10 11  1  0  0  0  0
 10 12  1  0  0  0  0
 10 13  1  0  0  0  0
 13 14  1  0  0  0  0
 13 15  1  0  0  0  0
 13 16  1  0  0  0  0
 16 17  1  0  0  0  0
 16 18  1  0  0  0  0
 16 19  1  0  0  0  0
 19 20  1  0  0  0  0
 19 21  1  0  0  0  0
 19 22  1  0  0  0  0
M  END
> <VConfSearch Rank>
888

> <Conf_Id>
51

> <Delta U+W>
-0.517

> <U+W>
-53.677

> <U>
7.026

> <W>
-60.703

> <W(PB)>
-63.007

> <W(SA)>
2.304

> <Valence>
7.638

> <Coulomb>
-1.488

> <VdW>
0.877

> <VdW6>
-7.165

> <VdW12>
8.042

> <Bond>
0.134

> <Angle>
2.513

> <Pdih>
4.990

> <Idih>
0.001

> <Tether>
0.000

$$$$
VeraChem MOL file


 22 21  0  0  0  0  0  0  0  0999 V2000     
   23.0413   18.3199   20.8282 C   0  0  0  0  0  0  0  0  0  0  0  0
   23.9695   18.8339   21.4208 O   0  5  0  0  0  0  0  0  0  0  0  0
   22.9391   17.1224   20.6482 O   0  0  0  0  0  0  0  0  0  0  0  0
   21.9555   19.2317   20.2636 C   0  0  0  0  0  0  0  0  0  0  0  0
   21.4034   18.6823   19.4914 H   0  0  0  0  0  0  0  0  0  0  0  0
   22.4574   20.0670   19.7612 H   0  0  0  0  0  0  0  0  0  0  0  0
   20.9762   19.7830   21.3322 C   0  0  0  0  0  0  0  0  0  0  0  0
   21.5461   20.3060   22.1128 H   0  0  0  0  0  0  0  0  0  0  0  0
   20.3218   20.5307   20.8640 H   0  0  0  0  0  0  0  0  0  0  0  0
   20.1087   18.6753   21.9710 C   0  0  0  0  0  0  0  0  0  0  0  0
   20.7561   17.9320   22.4566 H   0  0  0  0  0  0  0  0  0  0  0  0
   19.5512   18.1471   21.1854 H   0  0  0  0  0  0  0  0  0  0  0  0
   19.1201   19.2501   23.0082 C   0  0  0  0  0  0  0  0  0  0  0  0
   19.6784   19.7782   23.7934 H   0  0  0  0  0  0  0  0  0  0  0  0
   18.4697   19.9917   22.5243 H   0  0  0  0  0  0  0  0  0  0  0  0
   18.2539   18.1444   23.6471 C   0  0  0  0  0  0  0  0  0  0  0  0
   18.9013   17.4017   24.1337 H   0  0  0  0  0  0  0  0  0  0  0  0
   17.6927   17.6150   22.8647 H   0  0  0  0  0  0  0  0  0  0  0  0
   17.2685   18.7221   24.6827 C   0  0  0  0  0  0  0  0  0  0  0  0
   17.8051   19.2306   25.4944 H   0  0  0  0  0  0  0  0  0  0  0  0
   16.6612   17.9227   25.1267 H   0  0  0  0  0  0  0  0  0  0  0  0
   16.5874   19.4457   24.2158 H   0  0  0  0  0  0  0  0  0  0  0  0
  1  2  1  0  0  0  0
  1  3  2  0  0  0  0
  1  4  1  0  0  0  0
  4  5  1  0  0  0  0
  4  6  1  0  0  0  0
  4  7  1  0  0  0  0
  7  8  1  0  0  0  0
  7  9  1  0  0  0  0
  7 10  1  0  0  0  0
 10 11  1  0  0  0  0
 10 12  1  0  0  0  0
 10 13  1  0  0  0  0
 13 14  1  0  0  0  0
 13 15  1  0  0  0  0
 13 16  1  0  0  0  0
 16 17  1  0  0  0  0
 16 18  1  0  0  0  0
 16 19  1  0  0  0  0
 19 20  1  0  0  0  0
 19 21  1  0  0  0  0
 19 22  1  0  0  0  0
M  END
> <VConfSearch Rank>
889

> <Conf_Id>
43

> <Delta U+W>
-0.129

> <U+W>
-53.289

> <U>
7.937

> <W>
-61.225

> <W(PB)>
-63.523

> <W(SA)>
2.297

> <Valence>
7.358

> <Coulomb>
-0.022

> <VdW>
0.601

> <VdW6>
-7.363

> <VdW12>
7.964

> <Bond>
0.121

> <Angle>
2.425

> <Pdih>
4.811

> <Idih>
0.000

> <Tether>
0.000

$$$$
VeraChem MOL file


 22 21  0  0  0  0  0  0  0  0999 V2000     
   17.1819   18.4481   20.0436 C   0  0  0  0  0  0  0  0  0  0  0  0
   17.0088   19.3641   19.2639 O   0  5  0  0  0  0  0  0  0  0  0  0
   16.3300   18.0507   20.8138 O   0  0  0  0  0  0  0  0  0  0  0  0
   18.5380   17.7481   20.0408 C   0  0  0  0  0  0  0  0  0  0  0  0
   18.8083   17.5610   18.9949 H   0  0  0  0  0  0  0  0  0  0  0  0
   18.4272   16.7679   20.5203 H   0  0  0  0  0  0  0  0  0  0  0  0
   19.6669   18.5572   20.7307 C   0  0  0  0  0  0  0  0  0  0  0  0
   20.6252   18.0476   20.5615 H   0  0  0  0  0  0  0  0  0  0  0  0
   19.7469   19.5461   20.2583 H   0  0  0  0  0  0  0  0  0  0  0  0
   19.4380   18.7201   22.2502 C   0  0  0  0  0  0  0  0  0  0  0  0
   19.3457   17.7292   22.7156 H   0  0  0  0  0  0  0  0  0  0  0  0
   18.4889   19.2446   22.4273 H   0  0  0  0  0  0  0  0  0  0  0  0
   20.5885   19.5007   22.9213 C   0  0  0  0  0  0  0  0  0  0  0  0
   21.5384   18.9766   22.7480 H   0  0  0  0  0  0  0  0  0  0  0  0
   20.6801   20.4915   22.4553 H   0  0  0  0  0  0  0  0  0  0  0  0
   20.3602   19.6644   24.4385 C   0  0  0  0  0  0  0  0  0  0  0  0
   20.2697   18.6753   24.9084 H   0  0  0  0  0  0  0  0  0  0  0  0
   19.4115   20.1900   24.6157 H   0  0  0  0  0  0  0  0  0  0  0  0
   21.5107   20.4450   25.1052 C   0  0  0  0  0  0  0  0  0  0  0  0
   22.4681   19.9249   24.9703 H   0  0  0  0  0  0  0  0  0  0  0  0
   21.3320   20.5521   26.1830 H   0  0  0  0  0  0  0  0  0  0  0  0
   21.6035   21.4511   24.6754 H   0  0  0  0  0  0  0  0  0  0  0  0
  1  2  1  0  0  0  0
  1  3  2  0  0  0  0
  1  4  1  0  0  0  0
  4  5  1  0  0  0  0
  4  6  1  0  0  0  0
  4  7  1  0  0  0  0
  7  8  1  0  0  0  0
  7  9  1  0  0  0  0
  7 10  1  0  0  0  0
 10 11  1  0  0  0  0
 10 12  1  0  0  0  0
 10 13  1  0  0  0  0
 13 14  1  0  0  0  0
 13 15  1  0  0  0  0
 13 16  1  0  0  0  0
 16 17  1  0  0  0  0
 16 18  1  0  0  0  0
 16 19  1  0  0  0  0
 19 20  1  0  0  0  0
 19 21  1  0  0  0  0
 19 22  1  0  0  0  0
M  END
> <VConfSearch Rank>
890

> <Conf_Id>
44

> <Delta U+W>
-0.155

> <U+W>
-53.314

> <U>
7.937

> <W>
-61.252

> <W(PB)>
-63.556

> <W(SA)>
2.304

> <Valence>
7.358

> <Coulomb>
-0.021

> <VdW>
0.600

> <VdW6>
-7.363

> <VdW12>
7.964

> <Bond>
0.121

> <Angle>
2.425

> <Pdih>
4.811

> <Idih>
0.001

> <Tether>
0.000

$$$$
VeraChem MOL file


 22 21  0  0  0  0  0  0  0  0999 V2000     
   18.6611   22.3851   22.5190 C   0  0  0  0  0  0  0  0  0  0  0  0
   17.4532   22.4702   22.4161 O   0  5  0  0  0  0  0  0  0  0  0  0
   19.4398   23.0594   21.8741 O   0  0  0  0  0  0  0  0  0  0  0  0
   19.2286   21.3898   23.5273 C   0  0  0  0  0  0  0  0  0  0  0  0
   18.6644   21.5112   24.4595 H   0  0  0  0  0  0  0  0  0  0  0  0
   20.2671   21.6665   23.7466 H   0  0  0  0  0  0  0  0  0  0  0  0
   19.1546   19.9107   23.0666 C   0  0  0  0  0  0  0  0  0  0  0  0
   19.4378   19.2694   23.9109 H   0  0  0  0  0  0  0  0  0  0  0  0
   18.1153   19.6605   22.8123 H   0  0  0  0  0  0  0  0  0  0  0  0
   20.0757   19.6184   21.8578 C   0  0  0  0  0  0  0  0  0  0  0  0
   21.1196   19.8291   22.1276 H   0  0  0  0  0  0  0  0  0  0  0  0
   19.8238   20.3055   21.0383 H   0  0  0  0  0  0  0  0  0  0  0  0
   19.9589   18.1688   21.3297 C   0  0  0  0  0  0  0  0  0  0  0  0
   18.9149   17.9585   21.0602 H   0  0  0  0  0  0  0  0  0  0  0  0
   20.5410   18.0895   20.4013 H   0  0  0  0  0  0  0  0  0  0  0  0
   20.4640   17.1043   22.3297 C   0  0  0  0  0  0  0  0  0  0  0  0
   19.8436   17.1109   23.2355 H   0  0  0  0  0  0  0  0  0  0  0  0
   21.4897   17.3454   22.6412 H   0  0  0  0  0  0  0  0  0  0  0  0
   20.4350   15.6911   21.7134 C   0  0  0  0  0  0  0  0  0  0  0  0
   19.4150   15.4130   21.4173 H   0  0  0  0  0  0  0  0  0  0  0  0
   20.7930   14.9465   22.4363 H   0  0  0  0  0  0  0  0  0  0  0  0
   21.0771   15.6363   20.8247 H   0  0  0  0  0  0  0  0  0  0  0  0
  1  2  1  0  0  0  0
  1  3  2  0  0  0  0
  1  4  1  0  0  0  0
  4  5  1  0  0  0  0
  4  6  1  0  0  0  0
  4  7  1  0  0  0  0
  7  8  1  0  0  0  0
  7  9  1  0  0  0  0
  7 10  1  0  0  0  0
 10 11  1  0  0  0  0
 10 12  1  0  0  0  0
 10 13  1  0  0  0  0
 13 14  1  0  0  0  0
 13 15  1  0  0  0  0
 13 16  1  0  0  0  0
 16 17  1  0  0  0  0
 16 18  1  0  0  0  0
 16 19  1  0  0  0  0
 19 20  1  0  0  0  0
 19 21  1  0  0  0  0
 19 22  1  0  0  0  0
M  END
> <VConfSearch Rank>
891

> <Conf_Id>
53

> <Delta U+W>
0.723

> <U+W>
-52.436

> <U>
8.587

> <W>
-61.022

> <W(PB)>
-63.285

> <W(SA)>
2.263

> <Valence>
7.933

> <Coulomb>
-0.124

> <VdW>
0.778

> <VdW6>
-7.981

> <VdW12>
8.759

> <Bond>
0.160

> <Angle>
2.698

> <Pdih>
5.074

> <Idih>
0.001

> <Tether>
0.000

$$$$
VeraChem MOL file


 22 21  0  0  0  0  0  0  0  0999 V2000     
   16.5402   19.1870   23.2271 C   0  0  0  0  0  0  0  0  0  0  0  0
   16.4691   19.5024   24.3984 O   0  5  0  0  0  0  0  0  0  0  0  0
   15.5709   19.0542   22.5063 O   0  0  0  0  0  0  0  0  0  0  0  0
   17.9223   18.9676   22.6225 C   0  0  0  0  0  0  0  0  0  0  0  0
   17.8329   18.2129   21.8321 H   0  0  0  0  0  0  0  0  0  0  0  0
   18.5644   18.5509   23.4066 H   0  0  0  0  0  0  0  0  0  0  0  0
   18.5423   20.2690   22.0540 C   0  0  0  0  0  0  0  0  0  0  0  0
   17.8170   20.7361   21.3733 H   0  0  0  0  0  0  0  0  0  0  0  0
   18.6980   20.9833   22.8742 H   0  0  0  0  0  0  0  0  0  0  0  0
   19.8723   20.0609   21.2869 C   0  0  0  0  0  0  0  0  0  0  0  0
   20.1840   21.0386   20.8947 H   0  0  0  0  0  0  0  0  0  0  0  0
   19.7047   19.4260   20.4062 H   0  0  0  0  0  0  0  0  0  0  0  0
   21.0311   19.4941   22.1457 C   0  0  0  0  0  0  0  0  0  0  0  0
   21.9692   19.9615   21.8164 H   0  0  0  0  0  0  0  0  0  0  0  0
   20.8984   19.7836   23.1972 H   0  0  0  0  0  0  0  0  0  0  0  0
   21.1904   17.9608   22.0250 C   0  0  0  0  0  0  0  0  0  0  0  0
   21.3796   17.6925   20.9765 H   0  0  0  0  0  0  0  0  0  0  0  0
   20.2639   17.4520   22.3167 H   0  0  0  0  0  0  0  0  0  0  0  0
   22.3495   17.4424   22.8997 C   0  0  0  0  0  0  0  0  0  0  0  0
   23.3012   17.9036   22.6051 H   0  0  0  0  0  0  0  0  0  0  0  0
   22.4542   16.3544   22.7979 H   0  0  0  0  0  0  0  0  0  0  0  0
   22.1724   17.6681   23.9595 H   0  0  0  0  0  0  0  0  0  0  0  0
  1  2  1  0  0  0  0
  1  3  2  0  0  0  0
  1  4  1  0  0  0  0
  4  5  1  0  0  0  0
  4  6  1  0  0  0  0
  4  7  1  0  0  0  0
  7  8  1  0  0  0  0
  7  9  1  0  0  0  0
  7 10  1  0  0  0  0
 10 11  1  0  0  0  0
 10 12  1  0  0  0  0
 10 13  1  0  0  0  0
 13 14  1  0  0  0  0
 13 15  1  0  0  0  0
 13 16  1  0  0  0  0
 16 17  1  0  0  0  0
 16 18  1  0  0  0  0
 16 19  1  0  0  0  0
 19 20  1  0  0  0  0
 19 21  1  0  0  0  0
 19 22  1  0  0  0  0
M  END
> <VConfSearch Rank>
892

> <Conf_Id>
5

> <Delta U+W>
2.167

> <U+W>
-50.993

> <U>
10.045

> <W>
-61.037

> <W(PB)>
-63.303

> <W(SA)>
2.266

> <Valence>
10.100

> <Coulomb>
-0.883

> <VdW>
0.828

> <VdW6>
-8.177

> <VdW12>
9.005

> <Bond>
0.182

> <Angle>
2.988

> <Pdih>
6.930

> <Idih>
0.001

> <Tether>
0.000

$$$$
VeraChem MOL file


 22 21  0  0  0  0  0  0  0  0999 V2000     
   19.6173   19.2844   25.6626 C   0  0  0  0  0  0  0  0  0  0  0  0
   18.4459   19.2209   25.9792 O   0  5  0  0  0  0  0  0  0  0  0  0
   20.5134   19.5296   26.4460 O   0  0  0  0  0  0  0  0  0  0  0  0
   19.9808   19.0673   24.1982 C   0  0  0  0  0  0  0  0  0  0  0  0
   19.2767   18.3351   23.7873 H   0  0  0  0  0  0  0  0  0  0  0  0
   20.9822   18.6224   24.1577 H   0  0  0  0  0  0  0  0  0  0  0  0
   19.9415   20.3760   23.3695 C   0  0  0  0  0  0  0  0  0  0  0  0
   18.9135   20.7639   23.3554 H   0  0  0  0  0  0  0  0  0  0  0  0
   20.5492   21.1350   23.8813 H   0  0  0  0  0  0  0  0  0  0  0  0
   20.4608   20.2284   21.9172 C   0  0  0  0  0  0  0  0  0  0  0  0
   21.5197   19.9358   21.9229 H   0  0  0  0  0  0  0  0  0  0  0  0
   20.4289   21.2232   21.4521 H   0  0  0  0  0  0  0  0  0  0  0  0
   19.6391   19.2562   21.0333 C   0  0  0  0  0  0  0  0  0  0  0  0
   18.5987   19.2151   21.3837 H   0  0  0  0  0  0  0  0  0  0  0  0
   19.6018   19.6610   20.0126 H   0  0  0  0  0  0  0  0  0  0  0  0
   20.2408   17.8336   20.9638 C   0  0  0  0  0  0  0  0  0  0  0  0
   20.3248   17.4001   21.9675 H   0  0  0  0  0  0  0  0  0  0  0  0
   21.2604   17.8853   20.5577 H   0  0  0  0  0  0  0  0  0  0  0  0
   19.3880   16.9016   20.0798 C   0  0  0  0  0  0  0  0  0  0  0  0
   18.3703   16.8045   20.4800 H   0  0  0  0  0  0  0  0  0  0  0  0
   19.8316   15.8985   20.0347 H   0  0  0  0  0  0  0  0  0  0  0  0
   19.3181   17.2877   19.0545 H   0  0  0  0  0  0  0  0  0  0  0  0
  1  2  1  0  0  0  0
  1  3  2  0  0  0  0
  1  4  1  0  0  0  0
  4  5  1  0  0  0  0
  4  6  1  0  0  0  0
  4  7  1  0  0  0  0
  7  8  1  0  0  0  0
  7  9  1  0  0  0  0
  7 10  1  0  0  0  0
 10 11  1  0  0  0  0
 10 12  1  0  0  0  0
 10 13  1  0  0  0  0
 13 14  1  0  0  0  0
 13 15  1  0  0  0  0
 13 16  1  0  0  0  0
 16 17  1  0  0  0  0
 16 18  1  0  0  0  0
 16 19  1  0  0  0  0
 19 20  1  0  0  0  0
 19 21  1  0  0  0  0
 19 22  1  0  0  0  0
M  END
> <VConfSearch Rank>
893

> <Conf_Id>
6

> <Delta U+W>
2.118

> <U+W>
-51.042

> <U>
10.045

> <W>
-61.086

> <W(PB)>
-63.356

> <W(SA)>
2.270

> <Valence>
10.100

> <Coulomb>
-0.883

> <VdW>
0.828

> <VdW6>
-8.177

> <VdW12>
9.004

> <Bond>
0.182

> <Angle>
2.988

> <Pdih>
6.930

> <Idih>
0.001

> <Tether>
0.000

$$$$
VeraChem MOL file


 22 21  0  0  0  0  0  0  0  0999 V2000     
   20.6485   20.4775   20.5898 C   0  0  0  0  0  0  0  0  0  0  0  0
   20.2275   19.9973   19.5556 O   0  5  0  0  0  0  0  0  0  0  0  0
   21.8110   20.4068   20.9372 O   0  0  0  0  0  0  0  0  0  0  0  0
   19.6824   21.2728   21.4660 C   0  0  0  0  0  0  0  0  0  0  0  0
   19.3584   22.1314   20.8665 H   0  0  0  0  0  0  0  0  0  0  0  0
   20.2312   21.6788   22.3244 H   0  0  0  0  0  0  0  0  0  0  0  0
   18.4281   20.4917   21.9494 C   0  0  0  0  0  0  0  0  0  0  0  0
   17.6612   21.2247   22.2339 H   0  0  0  0  0  0  0  0  0  0  0  0
   18.0013   19.9159   21.1165 H   0  0  0  0  0  0  0  0  0  0  0  0
   18.6693   19.5652   23.1670 C   0  0  0  0  0  0  0  0  0  0  0  0
   17.6948   19.1928   23.5114 H   0  0  0  0  0  0  0  0  0  0  0  0
   19.0880   20.1486   23.9983 H   0  0  0  0  0  0  0  0  0  0  0  0
   19.5847   18.3565   22.8677 C   0  0  0  0  0  0  0  0  0  0  0  0
   19.2228   17.8320   21.9727 H   0  0  0  0  0  0  0  0  0  0  0  0
   20.6018   18.7044   22.6471 H   0  0  0  0  0  0  0  0  0  0  0  0
   19.6389   17.3738   24.0565 C   0  0  0  0  0  0  0  0  0  0  0  0
   18.6275   17.0095   24.2837 H   0  0  0  0  0  0  0  0  0  0  0  0
   19.9991   17.8974   24.9529 H   0  0  0  0  0  0  0  0  0  0  0  0
   20.5600   16.1735   23.7594 C   0  0  0  0  0  0  0  0  0  0  0  0
   20.2045   15.6131   22.8848 H   0  0  0  0  0  0  0  0  0  0  0  0
   20.5879   15.4858   24.6146 H   0  0  0  0  0  0  0  0  0  0  0  0
   21.5866   16.5070   23.5584 H   0  0  0  0  0  0  0  0  0  0  0  0
  1  2  1  0  0  0  0
  1  3  2  0  0  0  0
  1  4  1  0  0  0  0
  4  5  1  0  0  0  0
  4  6  1  0  0  0  0
  4  7  1  0  0  0  0
  7  8  1  0  0  0  0
  7  9  1  0  0  0  0
  7 10  1  0  0  0  0
 10 11  1  0  0  0  0
 10 12  1  0  0  0  0
 10 13  1  0  0  0  0
 13 14  1  0  0  0  0
 13 15  1  0  0  0  0
 13 16  1  0  0  0  0
 16 17  1  0  0  0  0
 16 18  1  0  0  0  0
 16 19  1  0  0  0  0
 19 20  1  0  0  0  0
 19 21  1  0  0  0  0
 19 22  1  0  0  0  0
M  END
> <VConfSearch Rank>
894

> <Conf_Id>
8

> <Delta U+W>
1.886

> <U+W>
-51.274

> <U>
11.237

> <W>
-62.510

> <W(PB)>
-64.777

> <W(SA)>
2.267

> <Valence>
9.029

> <Coulomb>
1.667

> <VdW>
0.540

> <VdW6>
-8.825

> <VdW12>
9.365

> <Bond>
0.186

> <Angle>
3.195

> <Pdih>
5.642

> <Idih>
0.007

> <Tether>
0.000

$$$$
VeraChem MOL file


 22 21  0  0  0  0  0  0  0  0999 V2000     
   17.6121   21.0182   23.4343 C   0  0  0  0  0  0  0  0  0  0  0  0
   18.0591   20.9172   24.5598 O   0  5  0  0  0  0  0  0  0  0  0  0
   16.4239   21.0020   23.1791 O   0  0  0  0  0  0  0  0  0  0  0  0
   18.5929   21.2057   22.2802 C   0  0  0  0  0  0  0  0  0  0  0  0
   19.5717   21.4770   22.6913 H   0  0  0  0  0  0  0  0  0  0  0  0
   18.2511   22.0709   21.7002 H   0  0  0  0  0  0  0  0  0  0  0  0
   18.7125   19.9741   21.3411 C   0  0  0  0  0  0  0  0  0  0  0  0
   17.7303   19.7824   20.8876 H   0  0  0  0  0  0  0  0  0  0  0  0
   19.3911   20.2172   20.5124 H   0  0  0  0  0  0  0  0  0  0  0  0
   19.2000   18.6784   22.0357 C   0  0  0  0  0  0  0  0  0  0  0  0
   19.1535   17.8635   21.3024 H   0  0  0  0  0  0  0  0  0  0  0  0
   18.5071   18.4076   22.8440 H   0  0  0  0  0  0  0  0  0  0  0  0
   20.6385   18.7847   22.5987 C   0  0  0  0  0  0  0  0  0  0  0  0
   21.3315   19.0746   21.7973 H   0  0  0  0  0  0  0  0  0  0  0  0
   20.6752   19.5841   23.3501 H   0  0  0  0  0  0  0  0  0  0  0  0
   21.1346   17.4807   23.2661 C   0  0  0  0  0  0  0  0  0  0  0  0
   20.4347   17.1801   24.0580 H   0  0  0  0  0  0  0  0  0  0  0  0
   22.0943   17.6831   23.7614 H   0  0  0  0  0  0  0  0  0  0  0  0
   21.3278   16.3157   22.2711 C   0  0  0  0  0  0  0  0  0  0  0  0
   20.3724   15.9940   21.8385 H   0  0  0  0  0  0  0  0  0  0  0  0
   21.7707   15.4485   22.7777 H   0  0  0  0  0  0  0  0  0  0  0  0
   21.9975   16.6062   21.4512 H   0  0  0  0  0  0  0  0  0  0  0  0
  1  2  1  0  0  0  0
  1  3  2  0  0  0  0
  1  4  1  0  0  0  0
  4  5  1  0  0  0  0
  4  6  1  0  0  0  0
  4  7  1  0  0  0  0
  7  8  1  0  0  0  0
  7  9  1  0  0  0  0
  7 10  1  0  0  0  0
 10 11  1  0  0  0  0
 10 12  1  0  0  0  0
 10 13  1  0  0  0  0
 13 14  1  0  0  0  0
 13 15  1  0  0  0  0
 13 16  1  0  0  0  0
 16 17  1  0  0  0  0
 16 18  1  0  0  0  0
 16 19  1  0  0  0  0
 19 20  1  0  0  0  0
 19 21  1  0  0  0  0
 19 22  1  0  0  0  0
M  END
> <VConfSearch Rank>
895

> <Conf_Id>
93

> <Delta U+W>
1.836

> <U+W>
-51.323

> <U>
10.427

> <W>
-61.751

> <W(PB)>
-63.980

> <W(SA)>
2.230

> <Valence>
8.446

> <Coulomb>
1.306

> <VdW>
0.676

> <VdW6>
-8.928

> <VdW12>
9.604

> <Bond>
0.209

> <Angle>
3.066

> <Pdih>
5.170

> <Idih>
0.001

> <Tether>
0.000

$$$$
VeraChem MOL file


 22 21  0  0  0  0  0  0  0  0999 V2000     
   20.4817   18.7777   19.4746 C   0  0  0  0  0  0  0  0  0  0  0  0
   21.5460   18.3550   19.0674 O   0  5  0  0  0  0  0  0  0  0  0  0
   20.0743   19.9003   19.2500 O   0  0  0  0  0  0  0  0  0  0  0  0
   19.5971   17.8356   20.2866 C   0  0  0  0  0  0  0  0  0  0  0  0
   19.5170   16.8985   19.7234 H   0  0  0  0  0  0  0  0  0  0  0  0
   18.5860   18.2554   20.3328 H   0  0  0  0  0  0  0  0  0  0  0  0
   20.1328   17.5322   21.7128 C   0  0  0  0  0  0  0  0  0  0  0  0
   19.4683   16.8063   22.2006 H   0  0  0  0  0  0  0  0  0  0  0  0
   21.1113   17.0406   21.6226 H   0  0  0  0  0  0  0  0  0  0  0  0
   20.2843   18.7761   22.6230 C   0  0  0  0  0  0  0  0  0  0  0  0
   20.9758   19.4929   22.1595 H   0  0  0  0  0  0  0  0  0  0  0  0
   20.7550   18.4540   23.5604 H   0  0  0  0  0  0  0  0  0  0  0  0
   18.9403   19.4788   22.9352 C   0  0  0  0  0  0  0  0  0  0  0  0
   18.4846   19.8219   21.9973 H   0  0  0  0  0  0  0  0  0  0  0  0
   18.2392   18.7603   23.3808 H   0  0  0  0  0  0  0  0  0  0  0  0
   19.0897   20.7035   23.8678 C   0  0  0  0  0  0  0  0  0  0  0  0
   18.1237   21.2243   23.9207 H   0  0  0  0  0  0  0  0  0  0  0  0
   19.8027   21.4168   23.4316 H   0  0  0  0  0  0  0  0  0  0  0  0
   19.5317   20.3346   25.3008 C   0  0  0  0  0  0  0  0  0  0  0  0
   20.5474   19.9203   25.3140 H   0  0  0  0  0  0  0  0  0  0  0  0
   18.8517   19.5954   25.7437 H   0  0  0  0  0  0  0  0  0  0  0  0
   19.5286   21.2243   25.9437 H   0  0  0  0  0  0  0  0  0  0  0  0
  1  2  1  0  0  0  0
  1  3  2  0  0  0  0
  1  4  1  0  0  0  0
  4  5  1  0  0  0  0
  4  6  1  0  0  0  0
  4  7  1  0  0  0  0
  7  8  1  0  0  0  0
  7  9  1  0  0  0  0
  7 10  1  0  0  0  0
 10 11  1  0  0  0  0
 10 12  1  0  0  0  0
 10 13  1  0  0  0  0
 13 14  1  0  0  0  0
 13 15  1  0  0  0  0
 13 16  1  0  0  0  0
 16 17  1  0  0  0  0
 16 18  1  0  0  0  0
 16 19  1  0  0  0  0
 19 20  1  0  0  0  0
 19 21  1  0  0  0  0
 19 22  1  0  0  0  0
M  END
> <VConfSearch Rank>
896

> <Conf_Id>
70

> <Delta U+W>
1.803

> <U+W>
-51.356

> <U>
10.428

> <W>
-61.784

> <W(PB)>
-64.014

> <W(SA)>
2.230

> <Valence>
8.445

> <Coulomb>
1.306

> <VdW>
0.676

> <VdW6>
-8.929

> <VdW12>
9.605

> <Bond>
0.209

> <Angle>
3.066

> <Pdih>
5.170

> <Idih>
0.001

> <Tether>
0.000

$$$$
VeraChem MOL file


 22 21  0  0  0  0  0  0  0  0999 V2000     
   16.9549   19.9122   24.0610 C   0  0  0  0  0  0  0  0  0  0  0  0
   16.5360   18.8632   24.5093 O   0  5  0  0  0  0  0  0  0  0  0  0
   16.2979   20.6519   23.3553 O   0  0  0  0  0  0  0  0  0  0  0  0
   18.3770   20.3318   24.4225 C   0  0  0  0  0  0  0  0  0  0  0  0
   18.5068   20.1603   25.4975 H   0  0  0  0  0  0  0  0  0  0  0  0
   18.4756   21.4118   24.2593 H   0  0  0  0  0  0  0  0  0  0  0  0
   19.4769   19.5684   23.6397 C   0  0  0  0  0  0  0  0  0  0  0  0
   20.4590   19.8356   24.0524 H   0  0  0  0  0  0  0  0  0  0  0  0
   19.3459   18.4905   23.8028 H   0  0  0  0  0  0  0  0  0  0  0  0
   19.4550   19.8871   22.1256 C   0  0  0  0  0  0  0  0  0  0  0  0
   19.4989   20.9763   21.9896 H   0  0  0  0  0  0  0  0  0  0  0  0
   18.5014   19.5594   21.6890 H   0  0  0  0  0  0  0  0  0  0  0  0
   20.6267   19.2467   21.3443 C   0  0  0  0  0  0  0  0  0  0  0  0
   20.6032   19.6225   20.3122 H   0  0  0  0  0  0  0  0  0  0  0  0
   21.5815   19.5791   21.7741 H   0  0  0  0  0  0  0  0  0  0  0  0
   20.5770   17.7024   21.3168 C   0  0  0  0  0  0  0  0  0  0  0  0
   19.6013   17.3699   20.9362 H   0  0  0  0  0  0  0  0  0  0  0  0
   20.6773   17.3024   22.3343 H   0  0  0  0  0  0  0  0  0  0  0  0
   21.6978   17.1162   20.4348 C   0  0  0  0  0  0  0  0  0  0  0  0
   21.6057   17.4654   19.3980 H   0  0  0  0  0  0  0  0  0  0  0  0
   21.6509   16.0194   20.4281 H   0  0  0  0  0  0  0  0  0  0  0  0
   22.6867   17.4110   20.8096 H   0  0  0  0  0  0  0  0  0  0  0  0
  1  2  1  0  0  0  0
  1  3  2  0  0  0  0
  1  4  1  0  0  0  0
  4  5  1  0  0  0  0
  4  6  1  0  0  0  0
  4  7  1  0  0  0  0
  7  8  1  0  0  0  0
  7  9  1  0  0  0  0
  7 10  1  0  0  0  0
 10 11  1  0  0  0  0
 10 12  1  0  0  0  0
 10 13  1  0  0  0  0
 13 14  1  0  0  0  0
 13 15  1  0  0  0  0
 13 16  1  0  0  0  0
 16 17  1  0  0  0  0
 16 18  1  0  0  0  0
 16 19  1  0  0  0  0
 19 20  1  0  0  0  0
 19 21  1  0  0  0  0
 19 22  1  0  0  0  0
M  END
> <VConfSearch Rank>
897

> <Conf_Id>
85

> <Delta U+W>
0.707

> <U+W>
-52.452

> <U>
8.925

> <W>
-61.378

> <W(PB)>
-63.661

> <W(SA)>
2.283

> <Valence>
7.881

> <Coulomb>
0.349

> <VdW>
0.695

> <VdW6>
-8.049

> <VdW12>
8.743

> <Bond>
0.156

> <Angle>
2.660

> <Pdih>
5.064

> <Idih>
0.001

> <Tether>
0.000

$$$$
VeraChem MOL file


 22 21  0  0  0  0  0  0  0  0999 V2000     
   20.7736   21.8947   21.2848 C   0  0  0  0  0  0  0  0  0  0  0  0
   21.1379   21.8772   20.1255 O   0  5  0  0  0  0  0  0  0  0  0  0
   19.9950   22.7136   21.7323 O   0  0  0  0  0  0  0  0  0  0  0  0
   21.3413   20.8463   22.2376 C   0  0  0  0  0  0  0  0  0  0  0  0
   21.6478   21.3678   23.1520 H   0  0  0  0  0  0  0  0  0  0  0  0
   22.2507   20.4239   21.7932 H   0  0  0  0  0  0  0  0  0  0  0  0
   20.3455   19.7132   22.5981 C   0  0  0  0  0  0  0  0  0  0  0  0
   20.7869   19.1072   23.3992 H   0  0  0  0  0  0  0  0  0  0  0  0
   19.4213   20.1528   22.9981 H   0  0  0  0  0  0  0  0  0  0  0  0
   20.0165   18.8038   21.3915 C   0  0  0  0  0  0  0  0  0  0  0  0
   20.9329   18.3021   21.0522 H   0  0  0  0  0  0  0  0  0  0  0  0
   19.6793   19.4266   20.5517 H   0  0  0  0  0  0  0  0  0  0  0  0
   18.9227   17.7434   21.6735 C   0  0  0  0  0  0  0  0  0  0  0  0
   17.9743   18.2382   21.9239 H   0  0  0  0  0  0  0  0  0  0  0  0
   18.7380   17.2027   20.7352 H   0  0  0  0  0  0  0  0  0  0  0  0
   19.2904   16.7053   22.7630 C   0  0  0  0  0  0  0  0  0  0  0  0
   20.3803   16.5749   22.8131 H   0  0  0  0  0  0  0  0  0  0  0  0
   18.8795   15.7291   22.4707 H   0  0  0  0  0  0  0  0  0  0  0  0
   18.7284   17.0610   24.1575 C   0  0  0  0  0  0  0  0  0  0  0  0
   19.1113   18.0219   24.5193 H   0  0  0  0  0  0  0  0  0  0  0  0
   19.0055   16.2923   24.8905 H   0  0  0  0  0  0  0  0  0  0  0  0
   17.6326   17.1212   24.1326 H   0  0  0  0  0  0  0  0  0  0  0  0
  1  2  1  0  0  0  0
  1  3  2  0  0  0  0
  1  4  1  0  0  0  0
  4  5  1  0  0  0  0
  4  6  1  0  0  0  0
  4  7  1  0  0  0  0
  7  8  1  0  0  0  0
  7  9  1  0  0  0  0
  7 10  1  0  0  0  0
 10 11  1  0  0  0  0
 10 12  1  0  0  0  0
 10 13  1  0  0  0  0
 13 14  1  0  0  0  0
 13 15  1  0  0  0  0
 13 16  1  0  0  0  0
 16 17  1  0  0  0  0
 16 18  1  0  0  0  0
 16 19  1  0  0  0  0
 19 20  1  0  0  0  0
 19 21  1  0  0  0  0
 19 22  1  0  0  0  0
M  END
> <VConfSearch Rank>
898

> <Conf_Id>
82

> <Delta U+W>
3.438

> <U+W>
-49.721

> <U>
11.773

> <W>
-61.495

> <W(PB)>
-63.749

> <W(SA)>
2.254

> <Valence>
10.419

> <Coulomb>
0.565

> <VdW>
0.789

> <VdW6>
-8.847

> <VdW12>
9.636

> <Bond>
0.200

> <Angle>
3.187

> <Pdih>
7.032

> <Idih>
0.001

> <Tether>
0.000

$$$$
VeraChem MOL file


 22 21  0  0  0  0  0  0  0  0999 V2000     
   16.7065   18.5191   23.1678 C   0  0  0  0  0  0  0  0  0  0  0  0
   16.6402   18.0900   24.3029 O   0  5  0  0  0  0  0  0  0  0  0  0
   16.0150   19.4276   22.7514 O   0  0  0  0  0  0  0  0  0  0  0  0
   17.6964   17.8648   22.2080 C   0  0  0  0  0  0  0  0  0  0  0  0
   17.4032   18.1104   21.1801 H   0  0  0  0  0  0  0  0  0  0  0  0
   17.5888   16.7792   22.3178 H   0  0  0  0  0  0  0  0  0  0  0  0
   19.1746   18.2650   22.4533 C   0  0  0  0  0  0  0  0  0  0  0  0
   19.4405   18.0571   23.4989 H   0  0  0  0  0  0  0  0  0  0  0  0
   19.8130   17.6300   21.8262 H   0  0  0  0  0  0  0  0  0  0  0  0
   19.4514   19.7505   22.1251 C   0  0  0  0  0  0  0  0  0  0  0  0
   18.7353   20.3800   22.6708 H   0  0  0  0  0  0  0  0  0  0  0  0
   19.2646   19.9291   21.0574 H   0  0  0  0  0  0  0  0  0  0  0  0
   20.8815   20.2258   22.4846 C   0  0  0  0  0  0  0  0  0  0  0  0
   20.9379   21.2999   22.2607 H   0  0  0  0  0  0  0  0  0  0  0  0
   21.0462   20.1382   23.5672 H   0  0  0  0  0  0  0  0  0  0  0  0
   22.0170   19.5121   21.7093 C   0  0  0  0  0  0  0  0  0  0  0  0
   22.8086   20.2432   21.4943 H   0  0  0  0  0  0  0  0  0  0  0  0
   21.6515   19.1625   20.7339 H   0  0  0  0  0  0  0  0  0  0  0  0
   22.6493   18.3421   22.4956 C   0  0  0  0  0  0  0  0  0  0  0  0
   23.0827   18.6961   23.4400 H   0  0  0  0  0  0  0  0  0  0  0  0
   23.4534   17.8769   21.9110 H   0  0  0  0  0  0  0  0  0  0  0  0
   21.9144   17.5643   22.7320 H   0  0  0  0  0  0  0  0  0  0  0  0
  1  2  1  0  0  0  0
  1  3  2  0  0  0  0
  1  4  1  0  0  0  0
  4  5  1  0  0  0  0
  4  6  1  0  0  0  0
  4  7  1  0  0  0  0
  7  8  1  0  0  0  0
  7  9  1  0  0  0  0
  7 10  1  0  0  0  0
 10 11  1  0  0  0  0
 10 12  1  0  0  0  0
 10 13  1  0  0  0  0
 13 14  1  0  0  0  0
 13 15  1  0  0  0  0
 13 16  1  0  0  0  0
 16 17  1  0  0  0  0
 16 18  1  0  0  0  0
 16 19  1  0  0  0  0
 19 20  1  0  0  0  0
 19 21  1  0  0  0  0
 19 22  1  0  0  0  0
M  END
> <VConfSearch Rank>
899

> <Conf_Id>
94

> <Delta U+W>
3.471

> <U+W>
-49.688

> <U>
11.773

> <W>
-61.461

> <W(PB)>
-63.710

> <W(SA)>
2.248

> <Valence>
10.419

> <Coulomb>
0.566

> <VdW>
0.789

> <VdW6>
-8.847

> <VdW12>
9.636

> <Bond>
0.200

> <Angle>
3.187

> <Pdih>
7.032

> <Idih>
0.001

> <Tether>
0.000

$$$$
VeraChem MOL file


 22 21  0  0  0  0  0  0  0  0999 V2000     
   17.3540   16.8627   22.1402 C   0  0  0  0  0  0  0  0  0  0  0  0
   17.0110   15.9487   22.8638 O   0  5  0  0  0  0  0  0  0  0  0  0
   17.1810   16.8696   20.9375 O   0  0  0  0  0  0  0  0  0  0  0  0
   18.0573   18.0575   22.7741 C   0  0  0  0  0  0  0  0  0  0  0  0
   17.6540   18.1940   23.7845 H   0  0  0  0  0  0  0  0  0  0  0  0
   17.7907   18.9481   22.1937 H   0  0  0  0  0  0  0  0  0  0  0  0
   19.5974   17.8863   22.8314 C   0  0  0  0  0  0  0  0  0  0  0  0
   19.8289   16.9442   23.3471 H   0  0  0  0  0  0  0  0  0  0  0  0
   19.9935   17.7801   21.8127 H   0  0  0  0  0  0  0  0  0  0  0  0
   20.3209   19.0424   23.5664 C   0  0  0  0  0  0  0  0  0  0  0  0
   21.3950   18.8191   23.6088 H   0  0  0  0  0  0  0  0  0  0  0  0
   19.9811   19.0660   24.6107 H   0  0  0  0  0  0  0  0  0  0  0  0
   20.1148   20.4501   22.9473 C   0  0  0  0  0  0  0  0  0  0  0  0
   19.0621   20.7432   23.0531 H   0  0  0  0  0  0  0  0  0  0  0  0
   20.6861   21.1790   23.5378 H   0  0  0  0  0  0  0  0  0  0  0  0
   20.5254   20.5824   21.4600 C   0  0  0  0  0  0  0  0  0  0  0  0
   20.3107   21.6071   21.1272 H   0  0  0  0  0  0  0  0  0  0  0  0
   19.9054   19.9244   20.8366 H   0  0  0  0  0  0  0  0  0  0  0  0
   22.0190   20.2815   21.2106 C   0  0  0  0  0  0  0  0  0  0  0  0
   22.6577   20.9178   21.8368 H   0  0  0  0  0  0  0  0  0  0  0  0
   22.2788   20.4693   20.1608 H   0  0  0  0  0  0  0  0  0  0  0  0
   22.2563   19.2329   21.4299 H   0  0  0  0  0  0  0  0  0  0  0  0
  1  2  1  0  0  0  0
  1  3  2  0  0  0  0
  1  4  1  0  0  0  0
  4  5  1  0  0  0  0
  4  6  1  0  0  0  0
  4  7  1  0  0  0  0
  7  8  1  0  0  0  0
  7  9  1  0  0  0  0
  7 10  1  0  0  0  0
 10 11  1  0  0  0  0
 10 12  1  0  0  0  0
 10 13  1  0  0  0  0
 13 14  1  0  0  0  0
 13 15  1  0  0  0  0
 13 16  1  0  0  0  0
 16 17  1  0  0  0  0
 16 18  1  0  0  0  0
 16 19  1  0  0  0  0
 19 20  1  0  0  0  0
 19 21  1  0  0  0  0
 19 22  1  0  0  0  0
M  END
> <VConfSearch Rank>
900

> <Conf_Id>
56

> <Delta U+W>
0.853

> <U+W>
-52.307

> <U>
8.874

> <W>
-61.181

> <W(PB)>
-63.413

> <W(SA)>
2.232

> <Valence>
8.479

> <Coulomb>
-0.357

> <VdW>
0.753

> <VdW6>
-9.081

> <VdW12>
9.833

> <Bond>
0.221

> <Angle>
3.208

> <Pdih>
5.050

> <Idih>
0.000

> <Tether>
0.000

$$$$
VeraChem MOL file


 22 21  0  0  0  0  0  0  0  0999 V2000     
   16.8906   16.4307   20.9414 C   0  0  0  0  0  0  0  0  0  0  0  0
   16.1075   16.8350   21.7791 O   0  5  0  0  0  0  0  0  0  0  0  0
   16.6148   15.5591   20.1414 O   0  0  0  0  0  0  0  0  0  0  0  0
   18.2969   17.0276   20.8663 C   0  0  0  0  0  0  0  0  0  0  0  0
   18.4303   17.4237   19.8528 H   0  0  0  0  0  0  0  0  0  0  0  0
   19.0091   16.2025   20.9847 H   0  0  0  0  0  0  0  0  0  0  0  0
   18.6021   18.1373   21.9074 C   0  0  0  0  0  0  0  0  0  0  0  0
   17.8812   18.9579   21.7874 H   0  0  0  0  0  0  0  0  0  0  0  0
   18.4607   17.7356   22.9204 H   0  0  0  0  0  0  0  0  0  0  0  0
   20.0393   18.6827   21.7607 C   0  0  0  0  0  0  0  0  0  0  0  0
   20.1782   19.0837   20.7473 H   0  0  0  0  0  0  0  0  0  0  0  0
   20.7581   17.8605   21.8809 H   0  0  0  0  0  0  0  0  0  0  0  0
   20.3409   19.7863   22.7972 C   0  0  0  0  0  0  0  0  0  0  0  0
   19.6222   20.6087   22.6774 H   0  0  0  0  0  0  0  0  0  0  0  0
   20.2021   19.3857   23.8108 H   0  0  0  0  0  0  0  0  0  0  0  0
   21.7769   20.3318   22.6512 C   0  0  0  0  0  0  0  0  0  0  0  0
   21.9188   20.7353   21.6390 H   0  0  0  0  0  0  0  0  0  0  0  0
   22.4987   19.5123   22.7724 H   0  0  0  0  0  0  0  0  0  0  0  0
   22.0741   21.4336   23.6880 C   0  0  0  0  0  0  0  0  0  0  0  0
   21.3859   22.2808   23.5691 H   0  0  0  0  0  0  0  0  0  0  0  0
   23.0985   21.8099   23.5699 H   0  0  0  0  0  0  0  0  0  0  0  0
   21.9703   21.0486   24.7110 H   0  0  0  0  0  0  0  0  0  0  0  0
  1  2  1  0  0  0  0
  1  3  2  0  0  0  0
  1  4  1  0  0  0  0
  4  5  1  0  0  0  0
  4  6  1  0  0  0  0
  4  7  1  0  0  0  0
  7  8  1  0  0  0  0
  7  9  1  0  0  0  0
  7 10  1  0  0  0  0
 10 11  1  0  0  0  0
 10 12  1  0  0  0  0
 10 13  1  0  0  0  0
 13 14  1  0  0  0  0
 13 15  1  0  0  0  0
 13 16  1  0  0  0  0
 16 17  1  0  0  0  0
 16 18  1  0  0  0  0
 16 19  1  0  0  0  0
 19 20  1  0  0  0  0
 19 21  1  0  0  0  0
 19 22  1  0  0  0  0
M  END
> <VConfSearch Rank>
901

> <Conf_Id>
0

> <Delta U+W>
0.000

> <U+W>
-53.159

> <U>
6.763

> <W>
-59.922

> <W(PB)>
-62.256

> <W(SA)>
2.334

> <Valence>
7.600

> <Coulomb>
-2.139

> <VdW>
1.302

> <VdW6>
-6.786

> <VdW12>
8.088

> <Bond>
0.134

> <Angle>
2.720

> <Pdih>
4.746

> <Idih>
0.000

> <Tether>
0.000

$$$$
VeraChem MOL file


 22 21  0  0  0  0  0  0  0  0999 V2000     
   16.0995   18.2223   20.7783 C   0  0  0  0  0  0  0  0  0  0  0  0
   15.3189   19.1447   20.9056 O   0  5  0  0  0  0  0  0  0  0  0  0
   15.7743   17.0528   20.8338 O   0  0  0  0  0  0  0  0  0  0  0  0
   17.5720   18.5504   20.5590 C   0  0  0  0  0  0  0  0  0  0  0  0
   17.6316   19.4868   19.9913 H   0  0  0  0  0  0  0  0  0  0  0  0
   18.0069   17.7628   19.9318 H   0  0  0  0  0  0  0  0  0  0  0  0
   18.3640   18.6770   21.8837 C   0  0  0  0  0  0  0  0  0  0  0  0
   17.9084   19.4602   22.5054 H   0  0  0  0  0  0  0  0  0  0  0  0
   18.2836   17.7363   22.4459 H   0  0  0  0  0  0  0  0  0  0  0  0
   19.8511   19.0093   21.6348 C   0  0  0  0  0  0  0  0  0  0  0  0
   19.9280   19.9495   21.0715 H   0  0  0  0  0  0  0  0  0  0  0  0
   20.3033   18.2251   21.0120 H   0  0  0  0  0  0  0  0  0  0  0  0
   20.6380   19.1349   22.9570 C   0  0  0  0  0  0  0  0  0  0  0  0
   20.1862   19.9189   23.5801 H   0  0  0  0  0  0  0  0  0  0  0  0
   20.5615   18.1949   23.5206 H   0  0  0  0  0  0  0  0  0  0  0  0
   22.1244   19.4670   22.7091 C   0  0  0  0  0  0  0  0  0  0  0  0
   22.2052   20.4078   22.1473 H   0  0  0  0  0  0  0  0  0  0  0  0
   22.5804   18.6838   22.0877 H   0  0  0  0  0  0  0  0  0  0  0  0
   22.9068   19.5916   24.0319 C   0  0  0  0  0  0  0  0  0  0  0  0
   22.8692   18.6530   24.6004 H   0  0  0  0  0  0  0  0  0  0  0  0
   22.4910   20.3900   24.6604 H   0  0  0  0  0  0  0  0  0  0  0  0
   23.9610   19.8278   23.8371 H   0  0  0  0  0  0  0  0  0  0  0  0
  1  2  1  0  0  0  0
  1  3  2  0  0  0  0
  1  4  1  0  0  0  0
  4  5  1  0  0  0  0
  4  6  1  0  0  0  0
  4  7  1  0  0  0  0
  7  8  1  0  0  0  0
  7  9  1  0  0  0  0
  7 10  1  0  0  0  0
 10 11  1  0  0  0  0
 10 12  1  0  0  0  0
 10 13  1  0  0  0  0
 13 14  1  0  0  0  0
 13 15  1  0  0  0  0
 13 16  1  0  0  0  0
 16 17  1  0  0  0  0
 16 18  1  0  0  0  0
 16 19  1  0  0  0  0
 19 20  1  0  0  0  0
 19 21  1  0  0  0  0
 19 22  1  0  0  0  0
M  END
> <VConfSearch Rank>
902

> <Conf_Id>
10

> <Delta U+W>
-1.291

> <U+W>
-54.451

> <U>
5.779

> <W>
-60.230

> <W(PB)>
-62.557

> <W(SA)>
2.328

> <Valence>
7.101

> <Coulomb>
-2.079

> <VdW>
0.757

> <VdW6>
-6.496

> <VdW12>
7.253

> <Bond>
0.100

> <Angle>
2.262

> <Pdih>
4.738

> <Idih>
0.001

> <Tether>
0.000

$$$$
VeraChem MOL file


 22 21  0  0  0  0  0  0  0  0999 V2000     
   22.4668   21.6420   21.1441 C   0  0  0  0  0  0  0  0  0  0  0  0
   23.3365   21.1989   20.4204 O   0  5  0  0  0  0  0  0  0  0  0  0
   22.1105   22.8036   21.1348 O   0  0  0  0  0  0  0  0  0  0  0  0
   21.7693   20.6827   22.1019 C   0  0  0  0  0  0  0  0  0  0  0  0
   21.4862   21.2440   23.0004 H   0  0  0  0  0  0  0  0  0  0  0  0
   22.4957   19.9214   22.4107 H   0  0  0  0  0  0  0  0  0  0  0  0
   20.5223   20.0094   21.4775 C   0  0  0  0  0  0  0  0  0  0  0  0
   19.8113   20.7854   21.1616 H   0  0  0  0  0  0  0  0  0  0  0  0
   20.8203   19.4620   20.5724 H   0  0  0  0  0  0  0  0  0  0  0  0
   19.8346   19.0435   22.4666 C   0  0  0  0  0  0  0  0  0  0  0  0
   19.5360   19.5938   23.3694 H   0  0  0  0  0  0  0  0  0  0  0  0
   20.5552   18.2772   22.7810 H   0  0  0  0  0  0  0  0  0  0  0  0
   18.5926   18.3713   21.8374 C   0  0  0  0  0  0  0  0  0  0  0  0
   17.9145   19.1511   21.4646 H   0  0  0  0  0  0  0  0  0  0  0  0
   18.8954   17.7785   20.9634 H   0  0  0  0  0  0  0  0  0  0  0  0
   17.8123   17.4737   22.8257 C   0  0  0  0  0  0  0  0  0  0  0  0
   16.8886   17.1327   22.3381 H   0  0  0  0  0  0  0  0  0  0  0  0
   17.5023   18.0649   23.6985 H   0  0  0  0  0  0  0  0  0  0  0  0
   18.6128   16.2386   23.2926 C   0  0  0  0  0  0  0  0  0  0  0  0
   17.9868   15.5900   23.9191 H   0  0  0  0  0  0  0  0  0  0  0  0
   19.4880   16.5295   23.8869 H   0  0  0  0  0  0  0  0  0  0  0  0
   18.9593   15.6477   22.4348 H   0  0  0  0  0  0  0  0  0  0  0  0
  1  2  1  0  0  0  0
  1  3  2  0  0  0  0
  1  4  1  0  0  0  0
  4  5  1  0  0  0  0
  4  6  1  0  0  0  0
  4  7  1  0  0  0  0
  7  8  1  0  0  0  0
  7  9  1  0  0  0  0
  7 10  1  0  0  0  0
 10 11  1  0  0  0  0
 10 12  1  0  0  0  0
 10 13  1  0  0  0  0
 13 14  1  0  0  0  0
 13 15  1  0  0  0  0
 13 16  1  0  0  0  0
 16 17  1  0  0  0  0
 16 18  1  0  0  0  0
 16 19  1  0  0  0  0
 19 20  1  0  0  0  0
 19 21  1  0  0  0  0
 19 22  1  0  0  0  0
M  END
> <VConfSearch Rank>
903

> <Conf_Id>
37

> <Delta U+W>
-0.345

> <U+W>
-53.504

> <U>
6.751

> <W>
-60.255

> <W(PB)>
-62.592

> <W(SA)>
2.336

> <Valence>
7.602

> <Coulomb>
-1.744

> <VdW>
0.894

> <VdW6>
-7.110

> <VdW12>
8.004

> <Bond>
0.131

> <Angle>
2.489

> <Pdih>
4.982

> <Idih>
0.001

> <Tether>
0.000

$$$$
VeraChem MOL file


 22 21  0  0  0  0  0  0  0  0999 V2000     
   23.2582   18.2136   20.6187 C   0  0  0  0  0  0  0  0  0  0  0  0
   24.0703   17.8210   21.4327 O   0  5  0  0  0  0  0  0  0  0  0  0
   23.5591   18.7856   19.5897 O   0  0  0  0  0  0  0  0  0  0  0  0
   21.7787   17.9957   20.9150 C   0  0  0  0  0  0  0  0  0  0  0  0
   21.6783   17.0611   21.4799 H   0  0  0  0  0  0  0  0  0  0  0  0
   21.2570   17.8554   19.9607 H   0  0  0  0  0  0  0  0  0  0  0  0
   21.1439   19.1676   21.7037 C   0  0  0  0  0  0  0  0  0  0  0  0
   21.6850   19.3031   22.6505 H   0  0  0  0  0  0  0  0  0  0  0  0
   21.2649   20.0976   21.1310 H   0  0  0  0  0  0  0  0  0  0  0  0
   19.6466   18.9230   21.9909 C   0  0  0  0  0  0  0  0  0  0  0  0
   19.5367   17.9886   22.5565 H   0  0  0  0  0  0  0  0  0  0  0  0
   19.1079   18.7901   21.0427 H   0  0  0  0  0  0  0  0  0  0  0  0
   19.0186   20.0938   22.7816 C   0  0  0  0  0  0  0  0  0  0  0  0
   19.5220   20.1968   23.7527 H   0  0  0  0  0  0  0  0  0  0  0  0
   19.1990   21.0305   22.2367 H   0  0  0  0  0  0  0  0  0  0  0  0
   17.4958   19.9398   23.0024 C   0  0  0  0  0  0  0  0  0  0  0  0
   16.9882   19.8429   22.0327 H   0  0  0  0  0  0  0  0  0  0  0  0
   17.1117   20.8604   23.4630 H   0  0  0  0  0  0  0  0  0  0  0  0
   17.1268   18.7418   23.9039 C   0  0  0  0  0  0  0  0  0  0  0  0
   17.6468   18.8014   24.8689 H   0  0  0  0  0  0  0  0  0  0  0  0
   17.3886   17.7877   23.4297 H   0  0  0  0  0  0  0  0  0  0  0  0
   16.0472   18.7288   24.1020 H   0  0  0  0  0  0  0  0  0  0  0  0
  1  2  1  0  0  0  0
  1  3  2  0  0  0  0
  1  4  1  0  0  0  0
  4  5  1  0  0  0  0
  4  6  1  0  0  0  0
  4  7  1  0  0  0  0
  7  8  1  0  0  0  0
  7  9  1  0  0  0  0
  7 10  1  0  0  0  0
 10 11  1  0  0  0  0
 10 12  1  0  0  0  0
 10 13  1  0  0  0  0
 13 14  1  0  0  0  0
 13 15  1  0  0  0  0
 13 16  1  0  0  0  0
 16 17  1  0  0  0  0
 16 18  1  0  0  0  0
 16 19  1  0  0  0  0
 19 20  1  0  0  0  0
 19 21  1  0  0  0  0
 19 22  1  0  0  0  0
M  END
> <VConfSearch Rank>
904

> <Conf_Id>
38

> <Delta U+W>
-0.439

> <U+W>
-53.598

> <U>
6.751

> <W>
-60.350

> <W(PB)>
-62.659

> <W(SA)>
2.309

> <Valence>
7.602

> <Coulomb>
-1.744

> <VdW>
0.893

> <VdW6>
-7.110

> <VdW12>
8.004

> <Bond>
0.131

> <Angle>
2.489

> <Pdih>
4.981

> <Idih>
0.001

> <Tether>
0.000

$$$$
VeraChem MOL file


 22 21  0  0  0  0  0  0  0  0999 V2000     
   22.3739   19.0227   19.4099 C   0  0  0  0  0  0  0  0  0  0  0  0
   23.1565   18.1165   19.2025 O   0  5  0  0  0  0  0  0  0  0  0  0
   22.5295   20.1541   18.9949 O   0  0  0  0  0  0  0  0  0  0  0  0
   21.1404   18.7292   20.2565 C   0  0  0  0  0  0  0  0  0  0  0  0
   20.8471   17.6874   20.0801 H   0  0  0  0  0  0  0  0  0  0  0  0
   20.3263   19.3635   19.8887 H   0  0  0  0  0  0  0  0  0  0  0  0
   21.3813   18.9683   21.7699 C   0  0  0  0  0  0  0  0  0  0  0  0
   22.2638   18.3917   22.0801 H   0  0  0  0  0  0  0  0  0  0  0  0
   21.6266   20.0256   21.9406 H   0  0  0  0  0  0  0  0  0  0  0  0
   20.1849   18.5581   22.6615 C   0  0  0  0  0  0  0  0  0  0  0  0
   20.5025   18.6296   23.7095 H   0  0  0  0  0  0  0  0  0  0  0  0
   19.9370   17.5031   22.4822 H   0  0  0  0  0  0  0  0  0  0  0  0
   18.9269   19.4348   22.4447 C   0  0  0  0  0  0  0  0  0  0  0  0
   19.1754   20.4900   22.6223 H   0  0  0  0  0  0  0  0  0  0  0  0
   18.6064   19.3619   21.3978 H   0  0  0  0  0  0  0  0  0  0  0  0
   17.7328   19.0273   23.3392 C   0  0  0  0  0  0  0  0  0  0  0  0
   17.4885   17.9691   23.1730 H   0  0  0  0  0  0  0  0  0  0  0  0
   16.8492   19.6018   23.0287 H   0  0  0  0  0  0  0  0  0  0  0  0
   17.9796   19.2745   24.8435 C   0  0  0  0  0  0  0  0  0  0  0  0
   18.7778   18.6294   25.2310 H   0  0  0  0  0  0  0  0  0  0  0  0
   17.0711   19.0605   25.4211 H   0  0  0  0  0  0  0  0  0  0  0  0
   18.2596   20.3195   25.0293 H   0  0  0  0  0  0  0  0  0  0  0  0
  1  2  1  0  0  0  0
  1  3  2  0  0  0  0
  1  4  1  0  0  0  0
  4  5  1  0  0  0  0
  4  6  1  0  0  0  0
  4  7  1  0  0  0  0
  7  8  1  0  0  0  0
  7  9  1  0  0  0  0
  7 10  1  0  0  0  0
 10 11  1  0  0  0  0
 10 12  1  0  0  0  0
 10 13  1  0  0  0  0
 13 14  1  0  0  0  0
 13 15  1  0  0  0  0
 13 16  1  0  0  0  0
 16 17  1  0  0  0  0
 16 18  1  0  0  0  0
 16 19  1  0  0  0  0
 19 20  1  0  0  0  0
 19 21  1  0  0  0  0
 19 22  1  0  0  0  0
M  END
> <VConfSearch Rank>
905

> <Conf_Id>
60

> <Delta U+W>
0.386

> <U+W>
-52.773

> <U>
7.689

> <W>
-60.463

> <W(PB)>
-62.772

> <W(SA)>
2.309

> <Valence>
8.197

> <Coulomb>
-1.561

> <VdW>
1.053

> <VdW6>
-7.737

> <VdW12>
8.790

> <Bond>
0.181

> <Angle>
2.780

> <Pdih>
5.235

> <Idih>
0.001

> <Tether>
0.000

$$$$
VeraChem MOL file


 22 21  0  0  0  0  0  0  0  0999 V2000     
   20.0806   15.2605   21.4279 C   0  0  0  0  0  0  0  0  0  0  0  0
   19.7040   14.6026   22.3776 O   0  5  0  0  0  0  0  0  0  0  0  0
   20.7556   14.8105   20.5232 O   0  0  0  0  0  0  0  0  0  0  0  0
   19.7047   16.7372   21.3800 C   0  0  0  0  0  0  0  0  0  0  0  0
   18.7192   16.8446   21.8466 H   0  0  0  0  0  0  0  0  0  0  0  0
   19.6005   17.0275   20.3277 H   0  0  0  0  0  0  0  0  0  0  0  0
   20.7470   17.6443   22.0846 C   0  0  0  0  0  0  0  0  0  0  0  0
   20.8073   17.3771   23.1487 H   0  0  0  0  0  0  0  0  0  0  0  0
   21.7379   17.4379   21.6568 H   0  0  0  0  0  0  0  0  0  0  0  0
   20.4522   19.1566   21.9408 C   0  0  0  0  0  0  0  0  0  0  0  0
   20.3843   19.4187   20.8762 H   0  0  0  0  0  0  0  0  0  0  0  0
   21.3104   19.7094   22.3435 H   0  0  0  0  0  0  0  0  0  0  0  0
   19.1630   19.6044   22.6726 C   0  0  0  0  0  0  0  0  0  0  0  0
   18.3035   19.0547   22.2687 H   0  0  0  0  0  0  0  0  0  0  0  0
   19.2301   19.3406   23.7368 H   0  0  0  0  0  0  0  0  0  0  0  0
   18.8712   21.1168   22.5324 C   0  0  0  0  0  0  0  0  0  0  0  0
   17.8796   21.3241   22.9579 H   0  0  0  0  0  0  0  0  0  0  0  0
   18.8147   21.3871   21.4689 H   0  0  0  0  0  0  0  0  0  0  0  0
   19.9106   22.0114   23.2423 C   0  0  0  0  0  0  0  0  0  0  0  0
   20.0091   21.7358   24.3003 H   0  0  0  0  0  0  0  0  0  0  0  0
   19.6058   23.0649   23.1948 H   0  0  0  0  0  0  0  0  0  0  0  0
   20.8982   21.9311   22.7716 H   0  0  0  0  0  0  0  0  0  0  0  0
  1  2  1  0  0  0  0
  1  3  2  0  0  0  0
  1  4  1  0  0  0  0
  4  5  1  0  0  0  0
  4  6  1  0  0  0  0
  4  7  1  0  0  0  0
  7  8  1  0  0  0  0
  7  9  1  0  0  0  0
  7 10  1  0  0  0  0
 10 11  1  0  0  0  0
 10 12  1  0  0  0  0
 10 13  1  0  0  0  0
 13 14  1  0  0  0  0
 13 15  1  0  0  0  0
 13 16  1  0  0  0  0
 16 17  1  0  0  0  0
 16 18  1  0  0  0  0
 16 19  1  0  0  0  0
 19 20  1  0  0  0  0
 19 21  1  0  0  0  0
 19 22  1  0  0  0  0
M  END
> <VConfSearch Rank>
906

> <Conf_Id>
28

> <Delta U+W>
0.351

> <U+W>
-52.808

> <U>
7.689

> <W>
-60.498

> <W(PB)>
-62.768

> <W(SA)>
2.270

> <Valence>
8.197

> <Coulomb>
-1.561

> <VdW>
1.053

> <VdW6>
-7.737

> <VdW12>
8.791

> <Bond>
0.181

> <Angle>
2.780

> <Pdih>
5.235

> <Idih>
0.001

> <Tether>
0.000

$$$$
VeraChem MOL file


 22 21  0  0  0  0  0  0  0  0999 V2000     
   22.4335   21.5135   23.1181 C   0  0  0  0  0  0  0  0  0  0  0  0
   23.3972   21.1586   23.7676 O   0  5  0  0  0  0  0  0  0  0  0  0
   22.5016   22.2767   22.1751 O   0  0  0  0  0  0  0  0  0  0  0  0
   21.0660   20.9546   23.4948 C   0  0  0  0  0  0  0  0  0  0  0  0
   20.3116   21.7169   23.2663 H   0  0  0  0  0  0  0  0  0  0  0  0
   21.0498   20.7970   24.5799 H   0  0  0  0  0  0  0  0  0  0  0  0
   20.7317   19.6346   22.7571 C   0  0  0  0  0  0  0  0  0  0  0  0
   20.7741   19.8129   21.6746 H   0  0  0  0  0  0  0  0  0  0  0  0
   21.5007   18.8848   22.9889 H   0  0  0  0  0  0  0  0  0  0  0  0
   19.3387   19.0932   23.1539 C   0  0  0  0  0  0  0  0  0  0  0  0
   18.5645   19.8207   22.8739 H   0  0  0  0  0  0  0  0  0  0  0  0
   19.2921   18.9949   24.2471 H   0  0  0  0  0  0  0  0  0  0  0  0
   19.0094   17.7188   22.5244 C   0  0  0  0  0  0  0  0  0  0  0  0
   19.7812   16.9900   22.8074 H   0  0  0  0  0  0  0  0  0  0  0  0
   18.0664   17.3556   22.9554 H   0  0  0  0  0  0  0  0  0  0  0  0
   18.8732   17.7622   20.9856 C   0  0  0  0  0  0  0  0  0  0  0  0
   19.8298   18.0480   20.5288 H   0  0  0  0  0  0  0  0  0  0  0  0
   18.1394   18.5284   20.6999 H   0  0  0  0  0  0  0  0  0  0  0  0
   18.4352   16.3970   20.4182 C   0  0  0  0  0  0  0  0  0  0  0  0
   17.4607   16.0963   20.8250 H   0  0  0  0  0  0  0  0  0  0  0  0
   19.1661   15.6162   20.6662 H   0  0  0  0  0  0  0  0  0  0  0  0
   18.3461   16.4431   19.3250 H   0  0  0  0  0  0  0  0  0  0  0  0
  1  2  1  0  0  0  0
  1  3  2  0  0  0  0
  1  4  1  0  0  0  0
  4  5  1  0  0  0  0
  4  6  1  0  0  0  0
  4  7  1  0  0  0  0
  7  8  1  0  0  0  0
  7  9  1  0  0  0  0
  7 10  1  0  0  0  0
 10 11  1  0  0  0  0
 10 12  1  0  0  0  0
 10 13  1  0  0  0  0
 13 14  1  0  0  0  0
 13 15  1  0  0  0  0
 13 16  1  0  0  0  0
 16 17  1  0  0  0  0
 16 18  1  0  0  0  0
 16 19  1  0  0  0  0
 19 20  1  0  0  0  0
 19 21  1  0  0  0  0
 19 22  1  0  0  0  0
M  END
> <VConfSearch Rank>
907

> <Conf_Id>
50

> <Delta U+W>
-0.486

> <U+W>
-53.646

> <U>
7.026

> <W>
-60.672

> <W(PB)>
-62.964

> <W(SA)>
2.292

> <Valence>
7.637

> <Coulomb>
-1.488

> <VdW>
0.877

> <VdW6>
-7.165

> <VdW12>
8.043

> <Bond>
0.134

> <Angle>
2.513

> <Pdih>
4.990

> <Idih>
0.001

> <Tether>
0.000

$$$$
VeraChem MOL file


 22 21  0  0  0  0  0  0  0  0999 V2000     
   20.3686   19.5990   25.8972 C   0  0  0  0  0  0  0  0  0  0  0  0
   21.3396   19.0520   26.3814 O   0  5  0  0  0  0  0  0  0  0  0  0
   19.2881   19.6647   26.4492 O   0  0  0  0  0  0  0  0  0  0  0  0
   20.5081   20.2192   24.5115 C   0  0  0  0  0  0  0  0  0  0  0  0
   21.5357   20.5873   24.4051 H   0  0  0  0  0  0  0  0  0  0  0  0
   19.8444   21.0907   24.4598 H   0  0  0  0  0  0  0  0  0  0  0  0
   20.1746   19.2257   23.3713 C   0  0  0  0  0  0  0  0  0  0  0  0
   20.8413   18.3552   23.4423 H   0  0  0  0  0  0  0  0  0  0  0  0
   19.1500   18.8569   23.5109 H   0  0  0  0  0  0  0  0  0  0  0  0
   20.3198   19.8818   21.9786 C   0  0  0  0  0  0  0  0  0  0  0  0
   21.3271   20.3112   21.8896 H   0  0  0  0  0  0  0  0  0  0  0  0
   19.6155   20.7201   21.8883 H   0  0  0  0  0  0  0  0  0  0  0  0
   20.1030   18.8951   20.8069 C   0  0  0  0  0  0  0  0  0  0  0  0
   20.3472   19.4107   19.8680 H   0  0  0  0  0  0  0  0  0  0  0  0
   20.8098   18.0586   20.8945 H   0  0  0  0  0  0  0  0  0  0  0  0
   18.6595   18.3503   20.7186 C   0  0  0  0  0  0  0  0  0  0  0  0
   17.9488   19.1875   20.6841 H   0  0  0  0  0  0  0  0  0  0  0  0
   18.4208   17.7636   21.6154 H   0  0  0  0  0  0  0  0  0  0  0  0
   18.4656   17.4625   19.4728 C   0  0  0  0  0  0  0  0  0  0  0  0
   19.1461   16.6012   19.4950 H   0  0  0  0  0  0  0  0  0  0  0  0
   18.6589   18.0287   18.5523 H   0  0  0  0  0  0  0  0  0  0  0  0
   17.4373   17.0810   19.4261 H   0  0  0  0  0  0  0  0  0  0  0  0
  1  2  1  0  0  0  0
  1  3  2  0  0  0  0
  1  4  1  0  0  0  0
  4  5  1  0  0  0  0
  4  6  1  0  0  0  0
  4  7  1  0  0  0  0
  7  8  1  0  0  0  0
  7  9  1  0  0  0  0
  7 10  1  0  0  0  0
 10 11  1  0  0  0  0
 10 12  1  0  0  0  0
 10 13  1  0  0  0  0
 13 14  1  0  0  0  0
 13 15  1  0  0  0  0
 13 16  1  0  0  0  0
 16 17  1  0  0  0  0
 16 18  1  0  0  0  0
 16 19  1  0  0  0  0
 19 20  1  0  0  0  0
 19 21  1  0  0  0  0
 19 22  1  0  0  0  0
M  END
> <VConfSearch Rank>
908

> <Conf_Id>
51

> <Delta U+W>
-0.517

> <U+W>
-53.677

> <U>
7.026

> <W>
-60.703

> <W(PB)>
-63.007

> <W(SA)>
2.304

> <Valence>
7.638

> <Coulomb>
-1.488

> <VdW>
0.877

> <VdW6>
-7.165

> <VdW12>
8.042

> <Bond>
0.134

> <Angle>
2.513

> <Pdih>
4.990

> <Idih>
0.001

> <Tether>
0.000

$$$$
VeraChem MOL file


 22 21  0  0  0  0  0  0  0  0999 V2000     
   21.8420   18.6431   19.4404 C   0  0  0  0  0  0  0  0  0  0  0  0
   21.2159   18.1811   18.5069 O   0  5  0  0  0  0  0  0  0  0  0  0
   22.3157   19.7622   19.4441 O   0  0  0  0  0  0  0  0  0  0  0  0
   22.0603   17.7610   20.6665 C   0  0  0  0  0  0  0  0  0  0  0  0
   22.8995   18.1664   21.2447 H   0  0  0  0  0  0  0  0  0  0  0  0
   22.3700   16.7722   20.3082 H   0  0  0  0  0  0  0  0  0  0  0  0
   20.8082   17.6158   21.5700 C   0  0  0  0  0  0  0  0  0  0  0  0
   19.9691   17.2357   20.9707 H   0  0  0  0  0  0  0  0  0  0  0  0
   21.0118   16.8621   22.3427 H   0  0  0  0  0  0  0  0  0  0  0  0
   20.4072   18.9451   22.2480 C   0  0  0  0  0  0  0  0  0  0  0  0
   20.1852   19.6997   21.4808 H   0  0  0  0  0  0  0  0  0  0  0  0
   21.2535   19.3275   22.8351 H   0  0  0  0  0  0  0  0  0  0  0  0
   19.1786   18.7706   23.1664 C   0  0  0  0  0  0  0  0  0  0  0  0
   18.3327   18.3883   22.5787 H   0  0  0  0  0  0  0  0  0  0  0  0
   19.3991   18.0185   23.9363 H   0  0  0  0  0  0  0  0  0  0  0  0
   18.7771   20.0979   23.8433 C   0  0  0  0  0  0  0  0  0  0  0  0
   18.5540   20.8523   23.0760 H   0  0  0  0  0  0  0  0  0  0  0  0
   19.6203   20.4826   24.4336 H   0  0  0  0  0  0  0  0  0  0  0  0
   17.5495   19.9199   24.7591 C   0  0  0  0  0  0  0  0  0  0  0  0
   16.6814   19.5655   24.1878 H   0  0  0  0  0  0  0  0  0  0  0  0
   17.2780   20.8728   25.2318 H   0  0  0  0  0  0  0  0  0  0  0  0
   17.7557   19.1930   25.5556 H   0  0  0  0  0  0  0  0  0  0  0  0
  1  2  1  0  0  0  0
  1  3  2  0  0  0  0
  1  4  1  0  0  0  0
  4  5  1  0  0  0  0
  4  6  1  0  0  0  0
  4  7  1  0  0  0  0
  7  8  1  0  0  0  0
  7  9  1  0  0  0  0
  7 10  1  0  0  0  0
 10 11  1  0  0  0  0
 10 12  1  0  0  0  0
 10 13  1  0  0  0  0
 13 14  1  0  0  0  0
 13 15  1  0  0  0  0
 13 16  1  0  0  0  0
 16 17  1  0  0  0  0
 16 18  1  0  0  0  0
 16 19  1  0  0  0  0
 19 20  1  0  0  0  0
 19 21  1  0  0  0  0
 19 22  1  0  0  0  0
M  END
> <VConfSearch Rank>
909

> <Conf_Id>
43

> <Delta U+W>
-0.129

> <U+W>
-53.289

> <U>
7.937

> <W>
-61.225

> <W(PB)>
-63.523

> <W(SA)>
2.297

> <Valence>
7.358

> <Coulomb>
-0.022

> <VdW>
0.601

> <VdW6>
-7.363

> <VdW12>
7.964

> <Bond>
0.121

> <Angle>
2.425

> <Pdih>
4.811

> <Idih>
0.000

> <Tether>
0.000

$$$$
VeraChem MOL file


 22 21  0  0  0  0  0  0  0  0999 V2000     
   16.2354   18.8905   22.4283 C   0  0  0  0  0  0  0  0  0  0  0  0
   15.7038   19.9668   22.6179 O   0  5  0  0  0  0  0  0  0  0  0  0
   16.1248   17.9439   23.1823 O   0  0  0  0  0  0  0  0  0  0  0  0
   17.0721   18.7146   21.1642 C   0  0  0  0  0  0  0  0  0  0  0  0
   16.4971   19.1326   20.3295 H   0  0  0  0  0  0  0  0  0  0  0  0
   17.1856   17.6419   20.9657 H   0  0  0  0  0  0  0  0  0  0  0  0
   18.4630   19.3975   21.2282 C   0  0  0  0  0  0  0  0  0  0  0  0
   18.9344   19.3396   20.2378 H   0  0  0  0  0  0  0  0  0  0  0  0
   18.3342   20.4650   21.4553 H   0  0  0  0  0  0  0  0  0  0  0  0
   19.3960   18.7486   22.2752 C   0  0  0  0  0  0  0  0  0  0  0  0
   19.5109   17.6791   22.0514 H   0  0  0  0  0  0  0  0  0  0  0  0
   18.9387   18.8179   23.2719 H   0  0  0  0  0  0  0  0  0  0  0  0
   20.7844   19.4232   22.2998 C   0  0  0  0  0  0  0  0  0  0  0  0
   21.2450   19.3526   21.3049 H   0  0  0  0  0  0  0  0  0  0  0  0
   20.6686   20.4925   22.5237 H   0  0  0  0  0  0  0  0  0  0  0  0
   21.7164   18.7761   23.3457 C   0  0  0  0  0  0  0  0  0  0  0  0
   21.8360   17.7065   23.1240 H   0  0  0  0  0  0  0  0  0  0  0  0
   21.2597   18.8464   24.3426 H   0  0  0  0  0  0  0  0  0  0  0  0
   23.1017   19.4527   23.3679 C   0  0  0  0  0  0  0  0  0  0  0  0
   23.5951   19.3697   22.3906 H   0  0  0  0  0  0  0  0  0  0  0  0
   23.7510   18.9805   24.1166 H   0  0  0  0  0  0  0  0  0  0  0  0
   23.0145   20.5181   23.6185 H   0  0  0  0  0  0  0  0  0  0  0  0
  1  2  1  0  0  0  0
  1  3  2  0  0  0  0
  1  4  1  0  0  0  0
  4  5  1  0  0  0  0
  4  6  1  0  0  0  0
  4  7  1  0  0  0  0
  7  8  1  0  0  0  0
  7  9  1  0  0  0  0
  7 10  1  0  0  0  0
 10 11  1  0  0  0  0
 10 12  1  0  0  0  0
 10 13  1  0  0  0  0
 13 14  1  0  0  0  0
 13 15  1  0  0  0  0
 13 16  1  0  0  0  0
 16 17  1  0  0  0  0
 16 18  1  0  0  0  0
 16 19  1  0  0  0  0
 19 20  1  0  0  0  0
 19 21  1  0  0  0  0
 19 22  1  0  0  0  0
M  END
> <VConfSearch Rank>
910

> <Conf_Id>
44

> <Delta U+W>
-0.155

> <U+W>
-53.314

> <U>
7.937

> <W>
-61.252

> <W(PB)>
-63.556

> <W(SA)>
2.304

> <Valence>
7.358

> <Coulomb>
-0.021

> <VdW>
0.600

> <VdW6>
-7.363

> <VdW12>
7.964

> <Bond>
0.121

> <Angle>
2.425

> <Pdih>
4.811

> <Idih>
0.001

> <Tether>
0.000

$$$$
VeraChem MOL file


 22 21  0  0  0  0  0  0  0  0999 V2000     
   19.3570   20.5398   25.4792 C   0  0  0  0  0  0  0  0  0  0  0  0
   18.3344   21.1938   25.5378 O   0  5  0  0  0  0  0  0  0  0  0  0
   20.4456   20.9627   25.8153 O   0  0  0  0  0  0  0  0  0  0  0  0
   19.2637   19.1027   24.9737 C   0  0  0  0  0  0  0  0  0  0  0  0
   18.4098   18.6340   25.4769 H   0  0  0  0  0  0  0  0  0  0  0  0
   20.1598   18.5587   25.2961 H   0  0  0  0  0  0  0  0  0  0  0  0
   19.0883   18.9827   23.4373 C   0  0  0  0  0  0  0  0  0  0  0  0
   18.8765   17.9341   23.1929 H   0  0  0  0  0  0  0  0  0  0  0  0
   18.2107   19.5653   23.1247 H   0  0  0  0  0  0  0  0  0  0  0  0
   20.3383   19.4576   22.6581 C   0  0  0  0  0  0  0  0  0  0  0  0
   21.2060   18.8461   22.9409 H   0  0  0  0  0  0  0  0  0  0  0  0
   20.5772   20.4883   22.9539 H   0  0  0  0  0  0  0  0  0  0  0  0
   20.1576   19.4225   21.1219 C   0  0  0  0  0  0  0  0  0  0  0  0
   19.2897   20.0340   20.8396 H   0  0  0  0  0  0  0  0  0  0  0  0
   21.0342   19.8952   20.6582 H   0  0  0  0  0  0  0  0  0  0  0  0
   19.9978   17.9953   20.5510 C   0  0  0  0  0  0  0  0  0  0  0  0
   19.0816   17.5321   20.9398 H   0  0  0  0  0  0  0  0  0  0  0  0
   20.8386   17.3686   20.8789 H   0  0  0  0  0  0  0  0  0  0  0  0
   19.9382   18.0064   19.0102 C   0  0  0  0  0  0  0  0  0  0  0  0
   19.0890   18.6046   18.6547 H   0  0  0  0  0  0  0  0  0  0  0  0
   19.8214   16.9868   18.6203 H   0  0  0  0  0  0  0  0  0  0  0  0
   20.8576   18.4286   18.5840 H   0  0  0  0  0  0  0  0  0  0  0  0
  1  2  1  0  0  0  0
  1  3  2  0  0  0  0
  1  4  1  0  0  0  0
  4  5  1  0  0  0  0
  4  6  1  0  0  0  0
  4  7  1  0  0  0  0
  7  8  1  0  0  0  0
  7  9  1  0  0  0  0
  7 10  1  0  0  0  0
 10 11  1  0  0  0  0
 10 12  1  0  0  0  0
 10 13  1  0  0  0  0
 13 14  1  0  0  0  0
 13 15  1  0  0  0  0
 13 16  1  0  0  0  0
 16 17  1  0  0  0  0
 16 18  1  0  0  0  0
 16 19  1  0  0  0  0
 19 20  1  0  0  0  0
 19 21  1  0  0  0  0
 19 22  1  0  0  0  0
M  END
> <VConfSearch Rank>
911

> <Conf_Id>
53

> <Delta U+W>
0.723

> <U+W>
-52.436

> <U>
8.587

> <W>
-61.022

> <W(PB)>
-63.285

> <W(SA)>
2.263

> <Valence>
7.933

> <Coulomb>
-0.124

> <VdW>
0.778

> <VdW6>
-7.981

> <VdW12>
8.759

> <Bond>
0.160

> <Angle>
2.698

> <Pdih>
5.074

> <Idih>
0.001

> <Tether>
0.000

$$$$
VeraChem MOL file


 22 21  0  0  0  0  0  0  0  0999 V2000     
   20.1547   15.6654   22.3707 C   0  0  0  0  0  0  0  0  0  0  0  0
   20.0085   15.2578   23.5060 O   0  5  0  0  0  0  0  0  0  0  0  0
   20.3344   14.9391   21.4132 O   0  0  0  0  0  0  0  0  0  0  0  0
   20.0866   17.1693   22.1307 C   0  0  0  0  0  0  0  0  0  0  0  0
   20.7368   17.4088   21.2809 H   0  0  0  0  0  0  0  0  0  0  0  0
   20.5023   17.6650   23.0152 H   0  0  0  0  0  0  0  0  0  0  0  0
   18.6451   17.6695   21.8608 C   0  0  0  0  0  0  0  0  0  0  0  0
   18.2057   17.0605   21.0586 H   0  0  0  0  0  0  0  0  0  0  0  0
   18.0286   17.4932   22.7530 H   0  0  0  0  0  0  0  0  0  0  0  0
   18.5524   19.1611   21.4520 C   0  0  0  0  0  0  0  0  0  0  0  0
   17.4967   19.3814   21.2426 H   0  0  0  0  0  0  0  0  0  0  0  0
   19.0850   19.3268   20.5055 H   0  0  0  0  0  0  0  0  0  0  0  0
   19.0486   20.1580   22.5298 C   0  0  0  0  0  0  0  0  0  0  0  0
   18.4087   21.0505   22.4992 H   0  0  0  0  0  0  0  0  0  0  0  0
   18.9213   19.7252   23.5315 H   0  0  0  0  0  0  0  0  0  0  0  0
   20.5125   20.6093   22.3199 C   0  0  0  0  0  0  0  0  0  0  0  0
   20.6110   21.0916   21.3376 H   0  0  0  0  0  0  0  0  0  0  0  0
   21.1864   19.7444   22.3136 H   0  0  0  0  0  0  0  0  0  0  0  0
   20.9633   21.5941   23.4174 C   0  0  0  0  0  0  0  0  0  0  0  0
   20.3319   22.4923   23.4231 H   0  0  0  0  0  0  0  0  0  0  0  0
   22.0012   21.9104   23.2507 H   0  0  0  0  0  0  0  0  0  0  0  0
   20.9061   21.1282   24.4099 H   0  0  0  0  0  0  0  0  0  0  0  0
  1  2  1  0  0  0  0
  1  3  2  0  0  0  0
  1  4  1  0  0  0  0
  4  5  1  0  0  0  0
  4  6  1  0  0  0  0
  4  7  1  0  0  0  0
  7  8  1  0  0  0  0
  7  9  1  0  0  0  0
  7 10  1  0  0  0  0
 10 11  1  0  0  0  0
 10 12  1  0  0  0  0
 10 13  1  0  0  0  0
 13 14  1  0  0  0  0
 13 15  1  0  0  0  0
 13 16  1  0  0  0  0
 16 17  1  0  0  0  0
 16 18  1  0  0  0  0
 16 19  1  0  0  0  0
 19 20  1  0  0  0  0
 19 21  1  0  0  0  0
 19 22  1  0  0  0  0
M  END
> <VConfSearch Rank>
912

> <Conf_Id>
5

> <Delta U+W>
2.167

> <U+W>
-50.993

> <U>
10.045

> <W>
-61.037

> <W(PB)>
-63.303

> <W(SA)>
2.266

> <Valence>
10.100

> <Coulomb>
-0.883

> <VdW>
0.828

> <VdW6>
-8.177

> <VdW12>
9.005

> <Bond>
0.182

> <Angle>
2.988

> <Pdih>
6.930

> <Idih>
0.001

> <Tether>
0.000

$$$$
VeraChem MOL file


 22 21  0  0  0  0  0  0  0  0999 V2000     
   17.9870   21.6643   22.2870 C   0  0  0  0  0  0  0  0  0  0  0  0
   16.8236   21.3528   22.4477 O   0  5  0  0  0  0  0  0  0  0  0  0
   18.3541   22.8006   22.0620 O   0  0  0  0  0  0  0  0  0  0  0  0
   19.0422   20.5658   22.3484 C   0  0  0  0  0  0  0  0  0  0  0  0
   18.7050   19.8232   23.0802 H   0  0  0  0  0  0  0  0  0  0  0  0
   19.9717   21.0065   22.7281 H   0  0  0  0  0  0  0  0  0  0  0  0
   19.2896   19.8937   20.9742 C   0  0  0  0  0  0  0  0  0  0  0  0
   18.3695   19.3897   20.6477 H   0  0  0  0  0  0  0  0  0  0  0  0
   19.4913   20.6771   20.2305 H   0  0  0  0  0  0  0  0  0  0  0  0
   20.4670   18.8867   20.9583 C   0  0  0  0  0  0  0  0  0  0  0  0
   21.4090   19.4036   21.1876 H   0  0  0  0  0  0  0  0  0  0  0  0
   20.5724   18.5177   19.9289 H   0  0  0  0  0  0  0  0  0  0  0  0
   20.2836   17.6640   21.8927 C   0  0  0  0  0  0  0  0  0  0  0  0
   19.2147   17.4481   22.0265 H   0  0  0  0  0  0  0  0  0  0  0  0
   20.7139   16.7816   21.3996 H   0  0  0  0  0  0  0  0  0  0  0  0
   20.9753   17.8321   23.2653 C   0  0  0  0  0  0  0  0  0  0  0  0
   20.5963   18.7216   23.7826 H   0  0  0  0  0  0  0  0  0  0  0  0
   22.0525   17.9899   23.1170 H   0  0  0  0  0  0  0  0  0  0  0  0
   20.7611   16.5958   24.1614 C   0  0  0  0  0  0  0  0  0  0  0  0
   19.6928   16.4315   24.3541 H   0  0  0  0  0  0  0  0  0  0  0  0
   21.2635   16.7273   25.1285 H   0  0  0  0  0  0  0  0  0  0  0  0
   21.1673   15.6922   23.6884 H   0  0  0  0  0  0  0  0  0  0  0  0
  1  2  1  0  0  0  0
  1  3  2  0  0  0  0
  1  4  1  0  0  0  0
  4  5  1  0  0  0  0
  4  6  1  0  0  0  0
  4  7  1  0  0  0  0
  7  8  1  0  0  0  0
  7  9  1  0  0  0  0
  7 10  1  0  0  0  0
 10 11  1  0  0  0  0
 10 12  1  0  0  0  0
 10 13  1  0  0  0  0
 13 14  1  0  0  0  0
 13 15  1  0  0  0  0
 13 16  1  0  0  0  0
 16 17  1  0  0  0  0
 16 18  1  0  0  0  0
 16 19  1  0  0  0  0
 19 20  1  0  0  0  0
 19 21  1  0  0  0  0
 19 22  1  0  0  0  0
M  END
> <VConfSearch Rank>
913

> <Conf_Id>
6

> <Delta U+W>
2.118

> <U+W>
-51.042

> <U>
10.045

> <W>
-61.086

> <W(PB)>
-63.356

> <W(SA)>
2.270

> <Valence>
10.100

> <Coulomb>
-0.883

> <VdW>
0.828

> <VdW6>
-8.177

> <VdW12>
9.004

> <Bond>
0.182

> <Angle>
2.988

> <Pdih>
6.930

> <Idih>
0.001

> <Tether>
0.000

$$$$
VeraChem MOL file


 22 21  0  0  0  0  0  0  0  0999 V2000     
   18.1214   18.9637   24.8459 C   0  0  0  0  0  0  0  0  0  0  0  0
   17.3135   19.8633   24.7216 O   0  5  0  0  0  0  0  0  0  0  0  0
   19.0449   18.9966   25.6352 O   0  0  0  0  0  0  0  0  0  0  0  0
   17.9266   17.6946   24.0182 C   0  0  0  0  0  0  0  0  0  0  0  0
   16.9708   17.2628   24.3367 H   0  0  0  0  0  0  0  0  0  0  0  0
   18.7039   16.9697   24.2886 H   0  0  0  0  0  0  0  0  0  0  0  0
   17.8983   17.9045   22.4780 C   0  0  0  0  0  0  0  0  0  0  0  0
   17.4005   17.0356   22.0267 H   0  0  0  0  0  0  0  0  0  0  0  0
   17.2731   18.7734   22.2297 H   0  0  0  0  0  0  0  0  0  0  0  0
   19.2914   18.0460   21.8160 C   0  0  0  0  0  0  0  0  0  0  0  0
   19.1549   18.0316   20.7260 H   0  0  0  0  0  0  0  0  0  0  0  0
   19.9079   17.1705   22.0614 H   0  0  0  0  0  0  0  0  0  0  0  0
   20.0456   19.3378   22.2046 C   0  0  0  0  0  0  0  0  0  0  0  0
   19.3903   20.2069   22.0552 H   0  0  0  0  0  0  0  0  0  0  0  0
   20.3065   19.3113   23.2701 H   0  0  0  0  0  0  0  0  0  0  0  0
   21.3366   19.5153   21.3777 C   0  0  0  0  0  0  0  0  0  0  0  0
   21.0900   19.5525   20.3076 H   0  0  0  0  0  0  0  0  0  0  0  0
   21.9923   18.6460   21.5247 H   0  0  0  0  0  0  0  0  0  0  0  0
   22.0921   20.7999   21.7734 C   0  0  0  0  0  0  0  0  0  0  0  0
   21.4694   21.6886   21.6067 H   0  0  0  0  0  0  0  0  0  0  0  0
   23.0072   20.9100   21.1771 H   0  0  0  0  0  0  0  0  0  0  0  0
   22.3783   20.7760   22.8331 H   0  0  0  0  0  0  0  0  0  0  0  0
  1  2  1  0  0  0  0
  1  3  2  0  0  0  0
  1  4  1  0  0  0  0
  4  5  1  0  0  0  0
  4  6  1  0  0  0  0
  4  7  1  0  0  0  0
  7  8  1  0  0  0  0
  7  9  1  0  0  0  0
  7 10  1  0  0  0  0
 10 11  1  0  0  0  0
 10 12  1  0  0  0  0
 10 13  1  0  0  0  0
 13 14  1  0  0  0  0
 13 15  1  0  0  0  0
 13 16  1  0  0  0  0
 16 17  1  0  0  0  0
 16 18  1  0  0  0  0
 16 19  1  0  0  0  0
 19 20  1  0  0  0  0
 19 21  1  0  0  0  0
 19 22  1  0  0  0  0
M  END
> <VConfSearch Rank>
914

> <Conf_Id>
8

> <Delta U+W>
1.886

> <U+W>
-51.274

> <U>
11.237

> <W>
-62.510

> <W(PB)>
-64.777

> <W(SA)>
2.267

> <Valence>
9.029

> <Coulomb>
1.667

> <VdW>
0.540

> <VdW6>
-8.825

> <VdW12>
9.365

> <Bond>
0.186

> <Angle>
3.195

> <Pdih>
5.642

> <Idih>
0.007

> <Tether>
0.000

$$$$
VeraChem MOL file


 22 21  0  0  0  0  0  0  0  0999 V2000     
   22.0513   17.0495   21.8672 C   0  0  0  0  0  0  0  0  0  0  0  0
   22.4003   17.1431   23.0275 O   0  5  0  0  0  0  0  0  0  0  0  0
   22.8141   17.1468   20.9260 O   0  0  0  0  0  0  0  0  0  0  0  0
   20.5808   16.7644   21.5745 C   0  0  0  0  0  0  0  0  0  0  0  0
   20.0964   16.4317   22.4993 H   0  0  0  0  0  0  0  0  0  0  0  0
   20.5456   15.9136   20.8841 H   0  0  0  0  0  0  0  0  0  0  0  0
   19.8129   17.9623   20.9511 C   0  0  0  0  0  0  0  0  0  0  0  0
   20.2792   18.2150   19.9888 H   0  0  0  0  0  0  0  0  0  0  0  0
   18.7848   17.6514   20.7219 H   0  0  0  0  0  0  0  0  0  0  0  0
   19.7758   19.2343   21.8340 C   0  0  0  0  0  0  0  0  0  0  0  0
   19.2955   20.0336   21.2557 H   0  0  0  0  0  0  0  0  0  0  0  0
   20.8004   19.5734   22.0392 H   0  0  0  0  0  0  0  0  0  0  0  0
   19.0174   19.0359   23.1692 C   0  0  0  0  0  0  0  0  0  0  0  0
   17.9984   18.6779   22.9689 H   0  0  0  0  0  0  0  0  0  0  0  0
   19.5155   18.2533   23.7560 H   0  0  0  0  0  0  0  0  0  0  0  0
   18.9560   20.3149   24.0366 C   0  0  0  0  0  0  0  0  0  0  0  0
   19.9736   20.6839   24.2253 H   0  0  0  0  0  0  0  0  0  0  0  0
   18.5342   20.0542   25.0170 H   0  0  0  0  0  0  0  0  0  0  0  0
   18.1007   21.4398   23.4136 C   0  0  0  0  0  0  0  0  0  0  0  0
   18.5499   21.8206   22.4881 H   0  0  0  0  0  0  0  0  0  0  0  0
   18.0113   22.2836   24.1100 H   0  0  0  0  0  0  0  0  0  0  0  0
   17.0884   21.0825   23.1843 H   0  0  0  0  0  0  0  0  0  0  0  0
  1  2  1  0  0  0  0
  1  3  2  0  0  0  0
  1  4  1  0  0  0  0
  4  5  1  0  0  0  0
  4  6  1  0  0  0  0
  4  7  1  0  0  0  0
  7  8  1  0  0  0  0
  7  9  1  0  0  0  0
  7 10  1  0  0  0  0
 10 11  1  0  0  0  0
 10 12  1  0  0  0  0
 10 13  1  0  0  0  0
 13 14  1  0  0  0  0
 13 15  1  0  0  0  0
 13 16  1  0  0  0  0
 16 17  1  0  0  0  0
 16 18  1  0  0  0  0
 16 19  1  0  0  0  0
 19 20  1  0  0  0  0
 19 21  1  0  0  0  0
 19 22  1  0  0  0  0
M  END
> <VConfSearch Rank>
915

> <Conf_Id>
93

> <Delta U+W>
1.836

> <U+W>
-51.323

> <U>
10.427

> <W>
-61.751

> <W(PB)>
-63.980

> <W(SA)>
2.230

> <Valence>
8.446

> <Coulomb>
1.306

> <VdW>
0.676

> <VdW6>
-8.928

> <VdW12>
9.604

> <Bond>
0.209

> <Angle>
3.066

> <Pdih>
5.170

> <Idih>
0.001

> <Tether>
0.000

$$$$
VeraChem MOL file


 22 21  0  0  0  0  0  0  0  0999 V2000     
   21.8979   21.1990   21.7832 C   0  0  0  0  0  0  0  0  0  0  0  0
   22.9600   21.3131   22.3630 O   0  5  0  0  0  0  0  0  0  0  0  0
   21.0494   22.0686   21.7577 O   0  0  0  0  0  0  0  0  0  0  0  0
   21.6301   19.9039   21.0215 C   0  0  0  0  0  0  0  0  0  0  0  0
   22.5046   19.7118   20.3890 H   0  0  0  0  0  0  0  0  0  0  0  0
   20.7863   20.0643   20.3411 H   0  0  0  0  0  0  0  0  0  0  0  0
   21.3759   18.6715   21.9325 C   0  0  0  0  0  0  0  0  0  0  0  0
   21.2505   17.7790   21.3048 H   0  0  0  0  0  0  0  0  0  0  0  0
   22.2731   18.4950   22.5418 H   0  0  0  0  0  0  0  0  0  0  0  0
   20.1546   18.8073   22.8752 C   0  0  0  0  0  0  0  0  0  0  0  0
   20.2879   19.6778   23.5320 H   0  0  0  0  0  0  0  0  0  0  0  0
   20.1326   17.9267   23.5294 H   0  0  0  0  0  0  0  0  0  0  0  0
   18.8061   18.9258   22.1235 C   0  0  0  0  0  0  0  0  0  0  0  0
   18.8223   19.8216   21.4895 H   0  0  0  0  0  0  0  0  0  0  0  0
   18.6781   18.0669   21.4508 H   0  0  0  0  0  0  0  0  0  0  0  0
   17.5847   19.0319   23.0664 C   0  0  0  0  0  0  0  0  0  0  0  0
   16.6942   19.2566   22.4633 H   0  0  0  0  0  0  0  0  0  0  0  0
   17.7176   19.8811   23.7509 H   0  0  0  0  0  0  0  0  0  0  0  0
   17.3206   17.7446   23.8775 C   0  0  0  0  0  0  0  0  0  0  0  0
   18.1322   17.5432   24.5875 H   0  0  0  0  0  0  0  0  0  0  0  0
   17.2190   16.8760   23.2140 H   0  0  0  0  0  0  0  0  0  0  0  0
   16.3916   17.8391   24.4546 H   0  0  0  0  0  0  0  0  0  0  0  0
  1  2  1  0  0  0  0
  1  3  2  0  0  0  0
  1  4  1  0  0  0  0
  4  5  1  0  0  0  0
  4  6  1  0  0  0  0
  4  7  1  0  0  0  0
  7  8  1  0  0  0  0
  7  9  1  0  0  0  0
  7 10  1  0  0  0  0
 10 11  1  0  0  0  0
 10 12  1  0  0  0  0
 10 13  1  0  0  0  0
 13 14  1  0  0  0  0
 13 15  1  0  0  0  0
 13 16  1  0  0  0  0
 16 17  1  0  0  0  0
 16 18  1  0  0  0  0
 16 19  1  0  0  0  0
 19 20  1  0  0  0  0
 19 21  1  0  0  0  0
 19 22  1  0  0  0  0
M  END
> <VConfSearch Rank>
916

> <Conf_Id>
70

> <Delta U+W>
1.803

> <U+W>
-51.356

> <U>
10.428

> <W>
-61.784

> <W(PB)>
-64.014

> <W(SA)>
2.230

> <Valence>
8.445

> <Coulomb>
1.306

> <VdW>
0.676

> <VdW6>
-8.929

> <VdW12>
9.605

> <Bond>
0.209

> <Angle>
3.066

> <Pdih>
5.170

> <Idih>
0.001

> <Tether>
0.000

$$$$
VeraChem MOL file


 22 21  0  0  0  0  0  0  0  0999 V2000     
   21.3822   20.5501   24.8120 C   0  0  0  0  0  0  0  0  0  0  0  0
   20.5171   20.9075   25.5870 O   0  5  0  0  0  0  0  0  0  0  0  0
   22.1826   21.3087   24.3013 O   0  0  0  0  0  0  0  0  0  0  0  0
   21.4804   19.0638   24.4796 C   0  0  0  0  0  0  0  0  0  0  0  0
   21.3935   18.5101   25.4219 H   0  0  0  0  0  0  0  0  0  0  0  0
   22.4820   18.8592   24.0826 H   0  0  0  0  0  0  0  0  0  0  0  0
   20.3978   18.5681   23.4860 C   0  0  0  0  0  0  0  0  0  0  0  0
   20.4605   17.4745   23.4065 H   0  0  0  0  0  0  0  0  0  0  0  0
   19.4060   18.8009   23.8956 H   0  0  0  0  0  0  0  0  0  0  0  0
   20.5557   19.1924   22.0789 C   0  0  0  0  0  0  0  0  0  0  0  0
   21.5822   19.0226   21.7263 H   0  0  0  0  0  0  0  0  0  0  0  0
   20.4252   20.2818   22.1371 H   0  0  0  0  0  0  0  0  0  0  0  0
   19.5746   18.6111   21.0334 C   0  0  0  0  0  0  0  0  0  0  0  0
   19.8373   19.0165   20.0467 H   0  0  0  0  0  0  0  0  0  0  0  0
   19.7086   17.5227   20.9676 H   0  0  0  0  0  0  0  0  0  0  0  0
   18.0936   18.9369   21.3312 C   0  0  0  0  0  0  0  0  0  0  0  0
   17.9696   20.0222   21.4494 H   0  0  0  0  0  0  0  0  0  0  0  0
   17.7876   18.4743   22.2787 H   0  0  0  0  0  0  0  0  0  0  0  0
   17.1668   18.4349   20.2057 C   0  0  0  0  0  0  0  0  0  0  0  0
   17.4200   18.9076   19.2476 H   0  0  0  0  0  0  0  0  0  0  0  0
   16.1192   18.6709   20.4333 H   0  0  0  0  0  0  0  0  0  0  0  0
   17.2507   17.3470   20.0842 H   0  0  0  0  0  0  0  0  0  0  0  0
  1  2  1  0  0  0  0
  1  3  2  0  0  0  0
  1  4  1  0  0  0  0
  4  5  1  0  0  0  0
  4  6  1  0  0  0  0
  4  7  1  0  0  0  0
  7  8  1  0  0  0  0
  7  9  1  0  0  0  0
  7 10  1  0  0  0  0
 10 11  1  0  0  0  0
 10 12  1  0  0  0  0
 10 13  1  0  0  0  0
 13 14  1  0  0  0  0
 13 15  1  0  0  0  0
 13 16  1  0  0  0  0
 16 17  1  0  0  0  0
 16 18  1  0  0  0  0
 16 19  1  0  0  0  0
 19 20  1  0  0  0  0
 19 21  1  0  0  0  0
 19 22  1  0  0  0  0
M  END
> <VConfSearch Rank>
917

> <Conf_Id>
85

> <Delta U+W>
0.707

> <U+W>
-52.452

> <U>
8.925

> <W>
-61.378

> <W(PB)>
-63.661

> <W(SA)>
2.283

> <Valence>
7.881

> <Coulomb>
0.349

> <VdW>
0.695

> <VdW6>
-8.049

> <VdW12>
8.743

> <Bond>
0.156

> <Angle>
2.660

> <Pdih>
5.064

> <Idih>
0.001

> <Tether>
0.000

$$$$
VeraChem MOL file


 22 21  0  0  0  0  0  0  0  0999 V2000     
   21.5789   18.9156   25.2428 C   0  0  0  0  0  0  0  0  0  0  0  0
   22.6009   19.5684   25.1632 O   0  5  0  0  0  0  0  0  0  0  0  0
   20.7878   19.0148   26.1600 O   0  0  0  0  0  0  0  0  0  0  0  0
   21.2825   17.8988   24.1439 C   0  0  0  0  0  0  0  0  0  0  0  0
   20.9792   16.9665   24.6348 H   0  0  0  0  0  0  0  0  0  0  0  0
   22.2125   17.6849   23.6034 H   0  0  0  0  0  0  0  0  0  0  0  0
   20.1766   18.3436   23.1515 C   0  0  0  0  0  0  0  0  0  0  0  0
   19.9294   17.4920   22.5054 H   0  0  0  0  0  0  0  0  0  0  0  0
   19.2659   18.5996   23.7104 H   0  0  0  0  0  0  0  0  0  0  0  0
   20.6104   19.5413   22.2749 C   0  0  0  0  0  0  0  0  0  0  0  0
   21.4695   19.2483   21.6562 H   0  0  0  0  0  0  0  0  0  0  0  0
   20.9633   20.3543   22.9239 H   0  0  0  0  0  0  0  0  0  0  0  0
   19.4888   20.1037   21.3659 C   0  0  0  0  0  0  0  0  0  0  0  0
   18.6622   20.4856   21.9806 H   0  0  0  0  0  0  0  0  0  0  0  0
   19.8975   20.9774   20.8403 H   0  0  0  0  0  0  0  0  0  0  0  0
   18.9539   19.1101   20.3045 C   0  0  0  0  0  0  0  0  0  0  0  0
   19.7322   18.3819   20.0375 H   0  0  0  0  0  0  0  0  0  0  0  0
   18.7284   19.6669   19.3845 H   0  0  0  0  0  0  0  0  0  0  0  0
   17.6663   18.3802   20.7478 C   0  0  0  0  0  0  0  0  0  0  0  0
   17.8240   17.7895   21.6572 H   0  0  0  0  0  0  0  0  0  0  0  0
   17.3215   17.6978   19.9603 H   0  0  0  0  0  0  0  0  0  0  0  0
   16.8599   19.0981   20.9464 H   0  0  0  0  0  0  0  0  0  0  0  0
  1  2  1  0  0  0  0
  1  3  2  0  0  0  0
  1  4  1  0  0  0  0
  4  5  1  0  0  0  0
  4  6  1  0  0  0  0
  4  7  1  0  0  0  0
  7  8  1  0  0  0  0
  7  9  1  0  0  0  0
  7 10  1  0  0  0  0
 10 11  1  0  0  0  0
 10 12  1  0  0  0  0
 10 13  1  0  0  0  0
 13 14  1  0  0  0  0
 13 15  1  0  0  0  0
 13 16  1  0  0  0  0
 16 17  1  0  0  0  0
 16 18  1  0  0  0  0
 16 19  1  0  0  0  0
 19 20  1  0  0  0  0
 19 21  1  0  0  0  0
 19 22  1  0  0  0  0
M  END
> <VConfSearch Rank>
918

> <Conf_Id>
82

> <Delta U+W>
3.438

> <U+W>
-49.721

> <U>
11.773

> <W>
-61.495

> <W(PB)>
-63.749

> <W(SA)>
2.254

> <Valence>
10.419

> <Coulomb>
0.565

> <VdW>
0.789

> <VdW6>
-8.847

> <VdW12>
9.636

> <Bond>
0.200

> <Angle>
3.187

> <Pdih>
7.032

> <Idih>
0.001

> <Tether>
0.000

$$$$
VeraChem MOL file


 22 21  0  0  0  0  0  0  0  0999 V2000     
   20.2055   15.6263   22.9446 C   0  0  0  0  0  0  0  0  0  0  0  0
   19.1873   15.2450   23.4875 O   0  5  0  0  0  0  0  0  0  0  0  0
   20.7351   15.0397   22.0214 O   0  0  0  0  0  0  0  0  0  0  0  0
   20.8662   16.8990   23.4674 C   0  0  0  0  0  0  0  0  0  0  0  0
   21.9093   16.9173   23.1292 H   0  0  0  0  0  0  0  0  0  0  0  0
   20.8884   16.8298   24.5613 H   0  0  0  0  0  0  0  0  0  0  0  0
   20.1440   18.2057   23.0469 C   0  0  0  0  0  0  0  0  0  0  0  0
   19.0892   18.1537   23.3501 H   0  0  0  0  0  0  0  0  0  0  0  0
   20.5959   19.0418   23.5950 H   0  0  0  0  0  0  0  0  0  0  0  0
   20.2423   18.4776   21.5278 C   0  0  0  0  0  0  0  0  0  0  0  0
   19.8918   17.5925   20.9795 H   0  0  0  0  0  0  0  0  0  0  0  0
   21.2961   18.6132   21.2490 H   0  0  0  0  0  0  0  0  0  0  0  0
   19.4203   19.6991   21.0456 C   0  0  0  0  0  0  0  0  0  0  0  0
   19.5229   19.7551   19.9533 H   0  0  0  0  0  0  0  0  0  0  0  0
   18.3512   19.5325   21.2363 H   0  0  0  0  0  0  0  0  0  0  0  0
   19.8663   21.0579   21.6413 C   0  0  0  0  0  0  0  0  0  0  0  0
   19.7634   21.8311   20.8675 H   0  0  0  0  0  0  0  0  0  0  0  0
   20.9331   21.0278   21.9027 H   0  0  0  0  0  0  0  0  0  0  0  0
   19.0268   21.4919   22.8636 C   0  0  0  0  0  0  0  0  0  0  0  0
   17.9681   21.5956   22.5926 H   0  0  0  0  0  0  0  0  0  0  0  0
   19.3729   22.4624   23.2418 H   0  0  0  0  0  0  0  0  0  0  0  0
   19.0960   20.7689   23.6842 H   0  0  0  0  0  0  0  0  0  0  0  0
  1  2  1  0  0  0  0
  1  3  2  0  0  0  0
  1  4  1  0  0  0  0
  4  5  1  0  0  0  0
  4  6  1  0  0  0  0
  4  7  1  0  0  0  0
  7  8  1  0  0  0  0
  7  9  1  0  0  0  0
  7 10  1  0  0  0  0
 10 11  1  0  0  0  0
 10 12  1  0  0  0  0
 10 13  1  0  0  0  0
 13 14  1  0  0  0  0
 13 15  1  0  0  0  0
 13 16  1  0  0  0  0
 16 17  1  0  0  0  0
 16 18  1  0  0  0  0
 16 19  1  0  0  0  0
 19 20  1  0  0  0  0
 19 21  1  0  0  0  0
 19 22  1  0  0  0  0
M  END
> <VConfSearch Rank>
919

> <Conf_Id>
94

> <Delta U+W>
3.471

> <U+W>
-49.688

> <U>
11.773

> <W>
-61.461

> <W(PB)>
-63.710

> <W(SA)>
2.248

> <Valence>
10.419

> <Coulomb>
0.566

> <VdW>
0.789

> <VdW6>
-8.847

> <VdW12>
9.636

> <Bond>
0.200

> <Angle>
3.187

> <Pdih>
7.032

> <Idih>
0.001

> <Tether>
0.000

$$$$
VeraChem MOL file


 22 21  0  0  0  0  0  0  0  0999 V2000     
   16.6974   19.2101   23.5048 C   0  0  0  0  0  0  0  0  0  0  0  0
   15.7335   18.4926   23.3238 O   0  5  0  0  0  0  0  0  0  0  0  0
   16.6155   20.3979   23.7474 O   0  0  0  0  0  0  0  0  0  0  0  0
   18.0860   18.5893   23.4028 C   0  0  0  0  0  0  0  0  0  0  0  0
   18.0216   17.5508   23.7484 H   0  0  0  0  0  0  0  0  0  0  0  0
   18.7426   19.1242   24.0984 H   0  0  0  0  0  0  0  0  0  0  0  0
   18.6616   18.6395   21.9638 C   0  0  0  0  0  0  0  0  0  0  0  0
   17.9427   18.1684   21.2794 H   0  0  0  0  0  0  0  0  0  0  0  0
   18.7494   19.6849   21.6393 H   0  0  0  0  0  0  0  0  0  0  0  0
   20.0261   17.9204   21.8184 C   0  0  0  0  0  0  0  0  0  0  0  0
   20.3359   17.9561   20.7657 H   0  0  0  0  0  0  0  0  0  0  0  0
   19.8922   16.8556   22.0526 H   0  0  0  0  0  0  0  0  0  0  0  0
   21.1670   18.4826   22.7070 C   0  0  0  0  0  0  0  0  0  0  0  0
   20.9297   18.2984   23.7630 H   0  0  0  0  0  0  0  0  0  0  0  0
   22.0823   17.9100   22.5049 H   0  0  0  0  0  0  0  0  0  0  0  0
   21.4694   19.9893   22.5161 C   0  0  0  0  0  0  0  0  0  0  0  0
   22.2700   20.2766   23.2112 H   0  0  0  0  0  0  0  0  0  0  0  0
   20.5935   20.5893   22.7968 H   0  0  0  0  0  0  0  0  0  0  0  0
   21.9071   20.3461   21.0791 C   0  0  0  0  0  0  0  0  0  0  0  0
   22.7727   19.7452   20.7716 H   0  0  0  0  0  0  0  0  0  0  0  0
   22.1896   21.4048   21.0152 H   0  0  0  0  0  0  0  0  0  0  0  0
   21.0954   20.1742   20.3611 H   0  0  0  0  0  0  0  0  0  0  0  0
  1  2  1  0  0  0  0
  1  3  2  0  0  0  0
  1  4  1  0  0  0  0
  4  5  1  0  0  0  0
  4  6  1  0  0  0  0
  4  7  1  0  0  0  0
  7  8  1  0  0  0  0
  7  9  1  0  0  0  0
  7 10  1  0  0  0  0
 10 11  1  0  0  0  0
 10 12  1  0  0  0  0
 10 13  1  0  0  0  0
 13 14  1  0  0  0  0
 13 15  1  0  0  0  0
 13 16  1  0  0  0  0
 16 17  1  0  0  0  0
 16 18  1  0  0  0  0
 16 19  1  0  0  0  0
 19 20  1  0  0  0  0
 19 21  1  0  0  0  0
 19 22  1  0  0  0  0
M  END
> <VConfSearch Rank>
920

> <Conf_Id>
56

> <Delta U+W>
0.853

> <U+W>
-52.307

> <U>
8.874

> <W>
-61.181

> <W(PB)>
-63.413

> <W(SA)>
2.232

> <Valence>
8.479

> <Coulomb>
-0.357

> <VdW>
0.753

> <VdW6>
-9.081

> <VdW12>
9.833

> <Bond>
0.221

> <Angle>
3.208

> <Pdih>
5.050

> <Idih>
0.000

> <Tether>
0.000

$$$$
VeraChem MOL file


 22 21  0  0  0  0  0  0  0  0999 V2000     
   15.9351   20.0488   22.4496 C   0  0  0  0  0  0  0  0  0  0  0  0
   15.8992   19.8415   23.6471 O   0  5  0  0  0  0  0  0  0  0  0  0
   14.9781   20.4479   21.8164 O   0  0  0  0  0  0  0  0  0  0  0  0
   17.2316   19.8048   21.6756 C   0  0  0  0  0  0  0  0  0  0  0  0
   17.5014   20.7471   21.1844 H   0  0  0  0  0  0  0  0  0  0  0  0
   17.0077   19.0820   20.8823 H   0  0  0  0  0  0  0  0  0  0  0  0
   18.4256   19.2965   22.5266 C   0  0  0  0  0  0  0  0  0  0  0  0
   18.6406   20.0222   23.3232 H   0  0  0  0  0  0  0  0  0  0  0  0
   18.1465   18.3555   23.0208 H   0  0  0  0  0  0  0  0  0  0  0  0
   19.6904   19.0773   21.6683 C   0  0  0  0  0  0  0  0  0  0  0  0
   19.9675   20.0193   21.1754 H   0  0  0  0  0  0  0  0  0  0  0  0
   19.4731   18.3516   20.8726 H   0  0  0  0  0  0  0  0  0  0  0  0
   20.8769   18.5716   22.5168 C   0  0  0  0  0  0  0  0  0  0  0  0
   21.0946   19.2970   23.3127 H   0  0  0  0  0  0  0  0  0  0  0  0
   20.6003   17.6295   23.0099 H   0  0  0  0  0  0  0  0  0  0  0  0
   22.1412   18.3524   21.6597 C   0  0  0  0  0  0  0  0  0  0  0  0
   22.4221   19.2933   21.1664 H   0  0  0  0  0  0  0  0  0  0  0  0
   21.9278   17.6257   20.8636 H   0  0  0  0  0  0  0  0  0  0  0  0
   23.3236   17.8473   22.5107 C   0  0  0  0  0  0  0  0  0  0  0  0
   23.5793   18.5704   23.2963 H   0  0  0  0  0  0  0  0  0  0  0  0
   24.2136   17.6970   21.8858 H   0  0  0  0  0  0  0  0  0  0  0  0
   23.0812   16.8903   22.9911 H   0  0  0  0  0  0  0  0  0  0  0  0
  1  2  1  0  0  0  0
  1  3  2  0  0  0  0
  1  4  1  0  0  0  0
  4  5  1  0  0  0  0
  4  6  1  0  0  0  0
  4  7  1  0  0  0  0
  7  8  1  0  0  0  0
  7  9  1  0  0  0  0
  7 10  1  0  0  0  0
 10 11  1  0  0  0  0
 10 12  1  0  0  0  0
 10 13  1  0  0  0  0
 13 14  1  0  0  0  0
 13 15  1  0  0  0  0
 13 16  1  0  0  0  0
 16 17  1  0  0  0  0
 16 18  1  0  0  0  0
 16 19  1  0  0  0  0
 19 20  1  0  0  0  0
 19 21  1  0  0  0  0
 19 22  1  0  0  0  0
M  END
> <VConfSearch Rank>
921

> <Conf_Id>
0

> <Delta U+W>
0.000

> <U+W>
-53.159

> <U>
6.763

> <W>
-59.922

> <W(PB)>
-62.256

> <W(SA)>
2.334

> <Valence>
7.600

> <Coulomb>
-2.139

> <VdW>
1.302

> <VdW6>
-6.786

> <VdW12>
8.088

> <Bond>
0.134

> <Angle>
2.720

> <Pdih>
4.746

> <Idih>
0.000

> <Tether>
0.000

$$$$
VeraChem MOL file


 22 21  0  0  0  0  0  0  0  0999 V2000     
   17.0680   17.2554   19.7679 C   0  0  0  0  0  0  0  0  0  0  0  0
   16.9862   17.7552   18.6634 O   0  5  0  0  0  0  0  0  0  0  0  0
   16.1250   16.7640   20.3559 O   0  0  0  0  0  0  0  0  0  0  0  0
   18.4243   17.2654   20.4639 C   0  0  0  0  0  0  0  0  0  0  0  0
   19.2024   17.1846   19.6953 H   0  0  0  0  0  0  0  0  0  0  0  0
   18.4927   16.3675   21.0900 H   0  0  0  0  0  0  0  0  0  0  0  0
   18.6507   18.5341   21.3225 C   0  0  0  0  0  0  0  0  0  0  0  0
   18.5662   19.4243   20.6838 H   0  0  0  0  0  0  0  0  0  0  0  0
   17.8565   18.6072   22.0784 H   0  0  0  0  0  0  0  0  0  0  0  0
   20.0300   18.5201   22.0162 C   0  0  0  0  0  0  0  0  0  0  0  0
   20.8216   18.4458   21.2579 H   0  0  0  0  0  0  0  0  0  0  0  0
   20.1117   17.6284   22.6529 H   0  0  0  0  0  0  0  0  0  0  0  0
   20.2528   19.7860   22.8713 C   0  0  0  0  0  0  0  0  0  0  0  0
   20.1712   20.6780   22.2351 H   0  0  0  0  0  0  0  0  0  0  0  0
   19.4614   19.8608   23.6298 H   0  0  0  0  0  0  0  0  0  0  0  0
   21.6311   19.7728   23.5650 C   0  0  0  0  0  0  0  0  0  0  0  0
   22.4256   19.7001   22.8093 H   0  0  0  0  0  0  0  0  0  0  0  0
   21.7159   18.8829   24.2040 H   0  0  0  0  0  0  0  0  0  0  0  0
   21.8498   21.0386   24.4179 C   0  0  0  0  0  0  0  0  0  0  0  0
   21.0866   21.1199   25.2030 H   0  0  0  0  0  0  0  0  0  0  0  0
   21.8015   21.9433   23.7978 H   0  0  0  0  0  0  0  0  0  0  0  0
   22.8340   21.0126   24.9034 H   0  0  0  0  0  0  0  0  0  0  0  0
  1  2  1  0  0  0  0
  1  3  2  0  0  0  0
  1  4  1  0  0  0  0
  4  5  1  0  0  0  0
  4  6  1  0  0  0  0
  4  7  1  0  0  0  0
  7  8  1  0  0  0  0
  7  9  1  0  0  0  0
  7 10  1  0  0  0  0
 10 11  1  0  0  0  0
 10 12  1  0  0  0  0
 10 13  1  0  0  0  0
 13 14  1  0  0  0  0
 13 15  1  0  0  0  0
 13 16  1  0  0  0  0
 16 17  1  0  0  0  0
 16 18  1  0  0  0  0
 16 19  1  0  0  0  0
 19 20  1  0  0  0  0
 19 21  1  0  0  0  0
 19 22  1  0  0  0  0
M  END
> <VConfSearch Rank>
922

> <Conf_Id>
10

> <Delta U+W>
-1.291

> <U+W>
-54.451

> <U>
5.779

> <W>
-60.230

> <W(PB)>
-62.557

> <W(SA)>
2.328

> <Valence>
7.101

> <Coulomb>
-2.079

> <VdW>
0.757

> <VdW6>
-6.496

> <VdW12>
7.253

> <Bond>
0.100

> <Angle>
2.262

> <Pdih>
4.738

> <Idih>
0.001

> <Tether>
0.000

$$$$
VeraChem MOL file


 22 21  0  0  0  0  0  0  0  0999 V2000     
   22.4609   21.7434   22.9985 C   0  0  0  0  0  0  0  0  0  0  0  0
   23.4025   21.3445   23.6547 O   0  5  0  0  0  0  0  0  0  0  0  0
   22.5209   22.6941   22.2442 O   0  0  0  0  0  0  0  0  0  0  0  0
   21.1366   20.9967   23.1118 C   0  0  0  0  0  0  0  0  0  0  0  0
   20.3244   21.7202   22.9719 H   0  0  0  0  0  0  0  0  0  0  0  0
   21.0514   20.6072   24.1334 H   0  0  0  0  0  0  0  0  0  0  0  0
   21.0067   19.8428   22.0872 C   0  0  0  0  0  0  0  0  0  0  0  0
   21.1076   20.2476   21.0706 H   0  0  0  0  0  0  0  0  0  0  0  0
   21.8337   19.1339   22.2321 H   0  0  0  0  0  0  0  0  0  0  0  0
   19.6580   19.1030   22.2224 C   0  0  0  0  0  0  0  0  0  0  0  0
   18.8332   19.8136   22.0751 H   0  0  0  0  0  0  0  0  0  0  0  0
   19.5645   18.7092   23.2429 H   0  0  0  0  0  0  0  0  0  0  0  0
   19.5348   17.9499   21.2001 C   0  0  0  0  0  0  0  0  0  0  0  0
   19.7009   18.3485   20.1899 H   0  0  0  0  0  0  0  0  0  0  0  0
   20.3286   17.2113   21.3775 H   0  0  0  0  0  0  0  0  0  0  0  0
   18.1580   17.2464   21.2298 C   0  0  0  0  0  0  0  0  0  0  0  0
   18.1124   16.5262   20.4012 H   0  0  0  0  0  0  0  0  0  0  0  0
   17.3618   17.9810   21.0464 H   0  0  0  0  0  0  0  0  0  0  0  0
   17.8814   16.4999   22.5528 C   0  0  0  0  0  0  0  0  0  0  0  0
   16.9358   15.9459   22.4903 H   0  0  0  0  0  0  0  0  0  0  0  0
   17.8028   17.1962   23.3970 H   0  0  0  0  0  0  0  0  0  0  0  0
   18.6807   15.7802   22.7725 H   0  0  0  0  0  0  0  0  0  0  0  0
  1  2  1  0  0  0  0
  1  3  2  0  0  0  0
  1  4  1  0  0  0  0
  4  5  1  0  0  0  0
  4  6  1  0  0  0  0
  4  7  1  0  0  0  0
  7  8  1  0  0  0  0
  7  9  1  0  0  0  0
  7 10  1  0  0  0  0
 10 11  1  0  0  0  0
 10 12  1  0  0  0  0
 10 13  1  0  0  0  0
 13 14  1  0  0  0  0
 13 15  1  0  0  0  0
 13 16  1  0  0  0  0
 16 17  1  0  0  0  0
 16 18  1  0  0  0  0
 16 19  1  0  0  0  0
 19 20  1  0  0  0  0
 19 21  1  0  0  0  0
 19 22  1  0  0  0  0
M  END
> <VConfSearch Rank>
923

> <Conf_Id>
37

> <Delta U+W>
-0.345

> <U+W>
-53.504

> <U>
6.751

> <W>
-60.255

> <W(PB)>
-62.592

> <W(SA)>
2.336

> <Valence>
7.602

> <Coulomb>
-1.744

> <VdW>
0.894

> <VdW6>
-7.110

> <VdW12>
8.004

> <Bond>
0.131

> <Angle>
2.489

> <Pdih>
4.982

> <Idih>
0.001

> <Tether>
0.000

$$$$
VeraChem MOL file


 22 21  0  0  0  0  0  0  0  0999 V2000     
   22.6272   17.1974   24.1790 C   0  0  0  0  0  0  0  0  0  0  0  0
   23.1405   16.2980   23.5433 O   0  5  0  0  0  0  0  0  0  0  0  0
   22.5898   17.2272   25.3931 O   0  0  0  0  0  0  0  0  0  0  0  0
   21.9751   18.3412   23.4104 C   0  0  0  0  0  0  0  0  0  0  0  0
   22.5365   18.4904   22.4802 H   0  0  0  0  0  0  0  0  0  0  0  0
   22.0833   19.2565   24.0047 H   0  0  0  0  0  0  0  0  0  0  0  0
   20.4810   18.0810   23.0971 C   0  0  0  0  0  0  0  0  0  0  0  0
   20.3886   17.1551   22.5125 H   0  0  0  0  0  0  0  0  0  0  0  0
   19.9360   17.9203   24.0377 H   0  0  0  0  0  0  0  0  0  0  0  0
   19.8442   19.2529   22.3191 C   0  0  0  0  0  0  0  0  0  0  0  0
   20.4003   19.4094   21.3856 H   0  0  0  0  0  0  0  0  0  0  0  0
   19.9360   20.1765   22.9067 H   0  0  0  0  0  0  0  0  0  0  0  0
   18.3539   18.9866   22.0054 C   0  0  0  0  0  0  0  0  0  0  0  0
   18.2624   18.0916   21.3749 H   0  0  0  0  0  0  0  0  0  0  0  0
   17.8260   18.7623   22.9424 H   0  0  0  0  0  0  0  0  0  0  0  0
   17.6479   20.1781   21.3175 C   0  0  0  0  0  0  0  0  0  0  0  0
   17.7318   21.0737   21.9484 H   0  0  0  0  0  0  0  0  0  0  0  0
   16.5752   19.9539   21.2380 H   0  0  0  0  0  0  0  0  0  0  0  0
   18.1976   20.4828   19.9071 C   0  0  0  0  0  0  0  0  0  0  0  0
   18.1517   19.5924   19.2666 H   0  0  0  0  0  0  0  0  0  0  0  0
   19.2393   20.8246   19.9481 H   0  0  0  0  0  0  0  0  0  0  0  0
   17.6071   21.2745   19.4279 H   0  0  0  0  0  0  0  0  0  0  0  0
  1  2  1  0  0  0  0
  1  3  2  0  0  0  0
  1  4  1  0  0  0  0
  4  5  1  0  0  0  0
  4  6  1  0  0  0  0
  4  7  1  0  0  0  0
  7  8  1  0  0  0  0
  7  9  1  0  0  0  0
  7 10  1  0  0  0  0
 10 11  1  0  0  0  0
 10 12  1  0  0  0  0
 10 13  1  0  0  0  0
 13 14  1  0  0  0  0
 13 15  1  0  0  0  0
 13 16  1  0  0  0  0
 16 17  1  0  0  0  0
 16 18  1  0  0  0  0
 16 19  1  0  0  0  0
 19 20  1  0  0  0  0
 19 21  1  0  0  0  0
 19 22  1  0  0  0  0
M  END
> <VConfSearch Rank>
924

> <Conf_Id>
38

> <Delta U+W>
-0.439

> <U+W>
-53.598

> <U>
6.751

> <W>
-60.350

> <W(PB)>
-62.659

> <W(SA)>
2.309

> <Valence>
7.602

> <Coulomb>
-1.744

> <VdW>
0.893

> <VdW6>
-7.110

> <VdW12>
8.004

> <Bond>
0.131

> <Angle>
2.489

> <Pdih>
4.981

> <Idih>
0.001

> <Tether>
0.000

$$$$
VeraChem MOL file


 22 21  0  0  0  0  0  0  0  0999 V2000     
   23.0236   19.8630   20.3450 C   0  0  0  0  0  0  0  0  0  0  0  0
   24.1016   19.3505   20.5726 O   0  5  0  0  0  0  0  0  0  0  0  0
   22.8917   20.9252   19.7698 O   0  0  0  0  0  0  0  0  0  0  0  0
   21.7686   19.1446   20.8279 C   0  0  0  0  0  0  0  0  0  0  0  0
   21.9597   18.0654   20.7924 H   0  0  0  0  0  0  0  0  0  0  0  0
   20.9674   19.3571   20.1114 H   0  0  0  0  0  0  0  0  0  0  0  0
   21.3497   19.5669   22.2603 C   0  0  0  0  0  0  0  0  0  0  0  0
   22.2089   19.4310   22.9316 H   0  0  0  0  0  0  0  0  0  0  0  0
   21.1135   20.6399   22.2729 H   0  0  0  0  0  0  0  0  0  0  0  0
   20.1531   18.7612   22.8204 C   0  0  0  0  0  0  0  0  0  0  0  0
   20.0272   19.0308   23.8767 H   0  0  0  0  0  0  0  0  0  0  0  0
   20.3892   17.6886   22.7985 H   0  0  0  0  0  0  0  0  0  0  0  0
   18.8280   19.0203   22.0622 C   0  0  0  0  0  0  0  0  0  0  0  0
   18.5929   20.0932   22.0826 H   0  0  0  0  0  0  0  0  0  0  0  0
   18.9515   18.7483   21.0063 H   0  0  0  0  0  0  0  0  0  0  0  0
   17.6314   18.2182   22.6251 C   0  0  0  0  0  0  0  0  0  0  0  0
   17.8671   17.1450   22.6170 H   0  0  0  0  0  0  0  0  0  0  0  0
   16.7720   18.3517   21.9536 H   0  0  0  0  0  0  0  0  0  0  0  0
   17.2179   18.6496   24.0490 C   0  0  0  0  0  0  0  0  0  0  0  0
   18.0022   18.4221   24.7815 H   0  0  0  0  0  0  0  0  0  0  0  0
   16.3091   18.1193   24.3614 H   0  0  0  0  0  0  0  0  0  0  0  0
   17.0107   19.7269   24.0886 H   0  0  0  0  0  0  0  0  0  0  0  0
  1  2  1  0  0  0  0
  1  3  2  0  0  0  0
  1  4  1  0  0  0  0
  4  5  1  0  0  0  0
  4  6  1  0  0  0  0
  4  7  1  0  0  0  0
  7  8  1  0  0  0  0
  7  9  1  0  0  0  0
  7 10  1  0  0  0  0
 10 11  1  0  0  0  0
 10 12  1  0  0  0  0
 10 13  1  0  0  0  0
 13 14  1  0  0  0  0
 13 15  1  0  0  0  0
 13 16  1  0  0  0  0
 16 17  1  0  0  0  0
 16 18  1  0  0  0  0
 16 19  1  0  0  0  0
 19 20  1  0  0  0  0
 19 21  1  0  0  0  0
 19 22  1  0  0  0  0
M  END
> <VConfSearch Rank>
925

> <Conf_Id>
60

> <Delta U+W>
0.386

> <U+W>
-52.773

> <U>
7.689

> <W>
-60.463

> <W(PB)>
-62.772

> <W(SA)>
2.309

> <Valence>
8.197

> <Coulomb>
-1.561

> <VdW>
1.053

> <VdW6>
-7.737

> <VdW12>
8.790

> <Bond>
0.181

> <Angle>
2.780

> <Pdih>
5.235

> <Idih>
0.001

> <Tether>
0.000

$$$$
VeraChem MOL file


 22 21  0  0  0  0  0  0  0  0999 V2000     
   21.1039   16.2577   19.8939 C   0  0  0  0  0  0  0  0  0  0  0  0
   21.6087   16.7653   18.9120 O   0  5  0  0  0  0  0  0  0  0  0  0
   20.7390   15.0996   19.9401 O   0  0  0  0  0  0  0  0  0  0  0  0
   20.8960   17.1279   21.1283 C   0  0  0  0  0  0  0  0  0  0  0  0
   21.7182   17.8511   21.1675 H   0  0  0  0  0  0  0  0  0  0  0  0
   20.9827   16.4875   22.0142 H   0  0  0  0  0  0  0  0  0  0  0  0
   19.5259   17.8548   21.1256 C   0  0  0  0  0  0  0  0  0  0  0  0
   19.4697   18.5302   20.2607 H   0  0  0  0  0  0  0  0  0  0  0  0
   18.7324   17.1074   20.9868 H   0  0  0  0  0  0  0  0  0  0  0  0
   19.2390   18.6441   22.4253 C   0  0  0  0  0  0  0  0  0  0  0  0
   19.3040   17.9678   23.2885 H   0  0  0  0  0  0  0  0  0  0  0  0
   18.2012   18.9986   22.3850 H   0  0  0  0  0  0  0  0  0  0  0  0
   20.1867   19.8509   22.6342 C   0  0  0  0  0  0  0  0  0  0  0  0
   21.2246   19.4975   22.6779 H   0  0  0  0  0  0  0  0  0  0  0  0
   20.1230   20.5261   21.7701 H   0  0  0  0  0  0  0  0  0  0  0  0
   19.8967   20.6422   23.9311 C   0  0  0  0  0  0  0  0  0  0  0  0
   20.6906   21.3885   24.0721 H   0  0  0  0  0  0  0  0  0  0  0  0
   19.9481   19.9677   24.7969 H   0  0  0  0  0  0  0  0  0  0  0  0
   18.5334   21.3674   23.9164 C   0  0  0  0  0  0  0  0  0  0  0  0
   18.4459   22.0219   23.0395 H   0  0  0  0  0  0  0  0  0  0  0  0
   18.4201   21.9887   24.8142 H   0  0  0  0  0  0  0  0  0  0  0  0
   17.6994   20.6549   23.8996 H   0  0  0  0  0  0  0  0  0  0  0  0
  1  2  1  0  0  0  0
  1  3  2  0  0  0  0
  1  4  1  0  0  0  0
  4  5  1  0  0  0  0
  4  6  1  0  0  0  0
  4  7  1  0  0  0  0
  7  8  1  0  0  0  0
  7  9  1  0  0  0  0
  7 10  1  0  0  0  0
 10 11  1  0  0  0  0
 10 12  1  0  0  0  0
 10 13  1  0  0  0  0
 13 14  1  0  0  0  0
 13 15  1  0  0  0  0
 13 16  1  0  0  0  0
 16 17  1  0  0  0  0
 16 18  1  0  0  0  0
 16 19  1  0  0  0  0
 19 20  1  0  0  0  0
 19 21  1  0  0  0  0
 19 22  1  0  0  0  0
M  END
> <VConfSearch Rank>
926

> <Conf_Id>
28

> <Delta U+W>
0.351

> <U+W>
-52.808

> <U>
7.689

> <W>
-60.498

> <W(PB)>
-62.768

> <W(SA)>
2.270

> <Valence>
8.197

> <Coulomb>
-1.561

> <VdW>
1.053

> <VdW6>
-7.737

> <VdW12>
8.791

> <Bond>
0.181

> <Angle>
2.780

> <Pdih>
5.235

> <Idih>
0.001

> <Tether>
0.000

$$$$
VeraChem MOL file


 22 21  0  0  0  0  0  0  0  0999 V2000     
   16.2155   19.4219   22.1540 C   0  0  0  0  0  0  0  0  0  0  0  0
   15.5305   18.6542   22.8005 O   0  5  0  0  0  0  0  0  0  0  0  0
   16.0187   20.6199   22.1030 O   0  0  0  0  0  0  0  0  0  0  0  0
   17.3994   18.8531   21.3799 C   0  0  0  0  0  0  0  0  0  0  0  0
   17.5403   19.4606   20.4778 H   0  0  0  0  0  0  0  0  0  0  0  0
   17.1365   17.8405   21.0513 H   0  0  0  0  0  0  0  0  0  0  0  0
   18.7046   18.8237   22.2129 C   0  0  0  0  0  0  0  0  0  0  0  0
   18.9353   19.8439   22.5465 H   0  0  0  0  0  0  0  0  0  0  0  0
   18.5446   18.2193   23.1164 H   0  0  0  0  0  0  0  0  0  0  0  0
   19.8888   18.2473   21.4027 C   0  0  0  0  0  0  0  0  0  0  0  0
   20.0828   18.8819   20.5270 H   0  0  0  0  0  0  0  0  0  0  0  0
   19.6079   17.2588   21.0141 H   0  0  0  0  0  0  0  0  0  0  0  0
   21.1870   18.0969   22.2308 C   0  0  0  0  0  0  0  0  0  0  0  0
   20.9945   17.4591   23.1043 H   0  0  0  0  0  0  0  0  0  0  0  0
   21.9309   17.5688   21.6188 H   0  0  0  0  0  0  0  0  0  0  0  0
   21.7838   19.4458   22.6920 C   0  0  0  0  0  0  0  0  0  0  0  0
   21.0869   19.9562   23.3696 H   0  0  0  0  0  0  0  0  0  0  0  0
   21.9273   20.1038   21.8239 H   0  0  0  0  0  0  0  0  0  0  0  0
   23.1320   19.2499   23.4143 C   0  0  0  0  0  0  0  0  0  0  0  0
   23.8679   18.7755   22.7519 H   0  0  0  0  0  0  0  0  0  0  0  0
   23.0125   18.6170   24.3034 H   0  0  0  0  0  0  0  0  0  0  0  0
   23.5411   20.2157   23.7382 H   0  0  0  0  0  0  0  0  0  0  0  0
  1  2  1  0  0  0  0
  1  3  2  0  0  0  0
  1  4  1  0  0  0  0
  4  5  1  0  0  0  0
  4  6  1  0  0  0  0
  4  7  1  0  0  0  0
  7  8  1  0  0  0  0
  7  9  1  0  0  0  0
  7 10  1  0  0  0  0
 10 11  1  0  0  0  0
 10 12  1  0  0  0  0
 10 13  1  0  0  0  0
 13 14  1  0  0  0  0
 13 15  1  0  0  0  0
 13 16  1  0  0  0  0
 16 17  1  0  0  0  0
 16 18  1  0  0  0  0
 16 19  1  0  0  0  0
 19 20  1  0  0  0  0
 19 21  1  0  0  0  0
 19 22  1  0  0  0  0
M  END
> <VConfSearch Rank>
927

> <Conf_Id>
50

> <Delta U+W>
-0.486

> <U+W>
-53.646

> <U>
7.026

> <W>
-60.672

> <W(PB)>
-62.964

> <W(SA)>
2.292

> <Valence>
7.637

> <Coulomb>
-1.488

> <VdW>
0.877

> <VdW6>
-7.165

> <VdW12>
8.043

> <Bond>
0.134

> <Angle>
2.513

> <Pdih>
4.990

> <Idih>
0.001

> <Tether>
0.000

$$$$
VeraChem MOL file


 22 21  0  0  0  0  0  0  0  0999 V2000     
   17.8444   16.7045   24.4978 C   0  0  0  0  0  0  0  0  0  0  0  0
   18.2935   15.5841   24.6374 O   0  5  0  0  0  0  0  0  0  0  0  0
   16.6617   16.9423   24.3525 O   0  0  0  0  0  0  0  0  0  0  0  0
   18.8212   17.8751   24.4838 C   0  0  0  0  0  0  0  0  0  0  0  0
   19.6578   17.6283   25.1485 H   0  0  0  0  0  0  0  0  0  0  0  0
   18.3134   18.7478   24.9118 H   0  0  0  0  0  0  0  0  0  0  0  0
   19.3446   18.2049   23.0642 C   0  0  0  0  0  0  0  0  0  0  0  0
   19.8422   17.3189   22.6462 H   0  0  0  0  0  0  0  0  0  0  0  0
   18.4888   18.4284   22.4138 H   0  0  0  0  0  0  0  0  0  0  0  0
   20.3287   19.3975   23.0788 C   0  0  0  0  0  0  0  0  0  0  0  0
   21.1362   19.1852   23.7929 H   0  0  0  0  0  0  0  0  0  0  0  0
   19.8162   20.2967   23.4475 H   0  0  0  0  0  0  0  0  0  0  0  0
   20.9612   19.6917   21.6979 C   0  0  0  0  0  0  0  0  0  0  0  0
   21.7331   20.4629   21.8259 H   0  0  0  0  0  0  0  0  0  0  0  0
   21.4772   18.7940   21.3306 H   0  0  0  0  0  0  0  0  0  0  0  0
   19.9407   20.1744   20.6425 C   0  0  0  0  0  0  0  0  0  0  0  0
   19.3873   21.0405   21.0309 H   0  0  0  0  0  0  0  0  0  0  0  0
   19.2031   19.3865   20.4411 H   0  0  0  0  0  0  0  0  0  0  0  0
   20.6344   20.5610   19.3208 C   0  0  0  0  0  0  0  0  0  0  0  0
   21.1737   19.7044   18.8955 H   0  0  0  0  0  0  0  0  0  0  0  0
   21.3536   21.3755   19.4776 H   0  0  0  0  0  0  0  0  0  0  0  0
   19.8968   20.8983   18.5811 H   0  0  0  0  0  0  0  0  0  0  0  0
  1  2  1  0  0  0  0
  1  3  2  0  0  0  0
  1  4  1  0  0  0  0
  4  5  1  0  0  0  0
  4  6  1  0  0  0  0
  4  7  1  0  0  0  0
  7  8  1  0  0  0  0
  7  9  1  0  0  0  0
  7 10  1  0  0  0  0
 10 11  1  0  0  0  0
 10 12  1  0  0  0  0
 10 13  1  0  0  0  0
 13 14  1  0  0  0  0
 13 15  1  0  0  0  0
 13 16  1  0  0  0  0
 16 17  1  0  0  0  0
 16 18  1  0  0  0  0
 16 19  1  0  0  0  0
 19 20  1  0  0  0  0
 19 21  1  0  0  0  0
 19 22  1  0  0  0  0
M  END
> <VConfSearch Rank>
928

> <Conf_Id>
51

> <Delta U+W>
-0.517

> <U+W>
-53.677

> <U>
7.026

> <W>
-60.703

> <W(PB)>
-63.007

> <W(SA)>
2.304

> <Valence>
7.638

> <Coulomb>
-1.488

> <VdW>
0.877

> <VdW6>
-7.165

> <VdW12>
8.042

> <Bond>
0.134

> <Angle>
2.513

> <Pdih>
4.990

> <Idih>
0.001

> <Tether>
0.000

$$$$
VeraChem MOL file


 22 21  0  0  0  0  0  0  0  0999 V2000     
   22.5559   18.6708   20.0456 C   0  0  0  0  0  0  0  0  0  0  0  0
   23.2694   17.7007   20.2085 O   0  5  0  0  0  0  0  0  0  0  0  0
   21.9077   18.8668   19.0365 O   0  0  0  0  0  0  0  0  0  0  0  0
   22.4862   19.7079   21.1630 C   0  0  0  0  0  0  0  0  0  0  0  0
   22.1033   20.6471   20.7458 H   0  0  0  0  0  0  0  0  0  0  0  0
   23.5132   19.9029   21.4938 H   0  0  0  0  0  0  0  0  0  0  0  0
   21.6254   19.2706   22.3766 C   0  0  0  0  0  0  0  0  0  0  0  0
   22.0036   18.3150   22.7657 H   0  0  0  0  0  0  0  0  0  0  0  0
   21.7434   20.0086   23.1816 H   0  0  0  0  0  0  0  0  0  0  0  0
   20.1269   19.1361   22.0245 C   0  0  0  0  0  0  0  0  0  0  0  0
   19.9990   18.3865   21.2313 H   0  0  0  0  0  0  0  0  0  0  0  0
   19.7570   20.0898   21.6239 H   0  0  0  0  0  0  0  0  0  0  0  0
   19.2850   18.7309   23.2536 C   0  0  0  0  0  0  0  0  0  0  0  0
   19.6555   17.7771   23.6536 H   0  0  0  0  0  0  0  0  0  0  0  0
   19.4090   19.4804   24.0472 H   0  0  0  0  0  0  0  0  0  0  0  0
   17.7885   18.5956   22.9025 C   0  0  0  0  0  0  0  0  0  0  0  0
   17.6604   17.8452   22.1100 H   0  0  0  0  0  0  0  0  0  0  0  0
   17.4139   19.5484   22.5036 H   0  0  0  0  0  0  0  0  0  0  0  0
   16.9510   18.1903   24.1321 C   0  0  0  0  0  0  0  0  0  0  0  0
   17.2842   17.2240   24.5330 H   0  0  0  0  0  0  0  0  0  0  0  0
   15.8903   18.0986   23.8645 H   0  0  0  0  0  0  0  0  0  0  0  0
   17.0359   18.9401   24.9296 H   0  0  0  0  0  0  0  0  0  0  0  0
  1  2  1  0  0  0  0
  1  3  2  0  0  0  0
  1  4  1  0  0  0  0
  4  5  1  0  0  0  0
  4  6  1  0  0  0  0
  4  7  1  0  0  0  0
  7  8  1  0  0  0  0
  7  9  1  0  0  0  0
  7 10  1  0  0  0  0
 10 11  1  0  0  0  0
 10 12  1  0  0  0  0
 10 13  1  0  0  0  0
 13 14  1  0  0  0  0
 13 15  1  0  0  0  0
 13 16  1  0  0  0  0
 16 17  1  0  0  0  0
 16 18  1  0  0  0  0
 16 19  1  0  0  0  0
 19 20  1  0  0  0  0
 19 21  1  0  0  0  0
 19 22  1  0  0  0  0
M  END
> <VConfSearch Rank>
929

> <Conf_Id>
43

> <Delta U+W>
-0.129

> <U+W>
-53.289

> <U>
7.937

> <W>
-61.225

> <W(PB)>
-63.523

> <W(SA)>
2.297

> <Valence>
7.358

> <Coulomb>
-0.022

> <VdW>
0.601

> <VdW6>
-7.363

> <VdW12>
7.964

> <Bond>
0.121

> <Angle>
2.425

> <Pdih>
4.811

> <Idih>
0.000

> <Tether>
0.000

$$$$
VeraChem MOL file


 22 21  0  0  0  0  0  0  0  0999 V2000     
   19.0928   16.5109   20.0909 C   0  0  0  0  0  0  0  0  0  0  0  0
   19.0219   16.8943   18.9399 O   0  5  0  0  0  0  0  0  0  0  0  0
   18.1760   15.9702   20.6773 O   0  0  0  0  0  0  0  0  0  0  0  0
   20.4126   16.7037   20.8328 C   0  0  0  0  0  0  0  0  0  0  0  0
   21.2170   16.3867   20.1586 H   0  0  0  0  0  0  0  0  0  0  0  0
   20.4331   16.0239   21.6932 H   0  0  0  0  0  0  0  0  0  0  0  0
   20.6689   18.1614   21.2956 C   0  0  0  0  0  0  0  0  0  0  0  0
   21.6907   18.2350   21.6921 H   0  0  0  0  0  0  0  0  0  0  0  0
   20.6174   18.8333   20.4276 H   0  0  0  0  0  0  0  0  0  0  0  0
   19.6682   18.6262   22.3773 C   0  0  0  0  0  0  0  0  0  0  0  0
   19.7142   17.9439   23.2372 H   0  0  0  0  0  0  0  0  0  0  0  0
   18.6443   18.5717   21.9822 H   0  0  0  0  0  0  0  0  0  0  0  0
   19.9611   20.0678   22.8457 C   0  0  0  0  0  0  0  0  0  0  0  0
   20.9835   20.1242   23.2439 H   0  0  0  0  0  0  0  0  0  0  0  0
   19.9148   20.7494   21.9853 H   0  0  0  0  0  0  0  0  0  0  0  0
   18.9616   20.5329   23.9254 C   0  0  0  0  0  0  0  0  0  0  0  0
   19.0062   19.8542   24.7885 H   0  0  0  0  0  0  0  0  0  0  0  0
   17.9378   20.4795   23.5299 H   0  0  0  0  0  0  0  0  0  0  0  0
   19.2568   21.9731   24.3902 C   0  0  0  0  0  0  0  0  0  0  0  0
   20.2645   22.0484   24.8196 H   0  0  0  0  0  0  0  0  0  0  0  0
   18.5371   22.2872   25.1573 H   0  0  0  0  0  0  0  0  0  0  0  0
   19.1879   22.6783   23.5516 H   0  0  0  0  0  0  0  0  0  0  0  0
  1  2  1  0  0  0  0
  1  3  2  0  0  0  0
  1  4  1  0  0  0  0
  4  5  1  0  0  0  0
  4  6  1  0  0  0  0
  4  7  1  0  0  0  0
  7  8  1  0  0  0  0
  7  9  1  0  0  0  0
  7 10  1  0  0  0  0
 10 11  1  0  0  0  0
 10 12  1  0  0  0  0
 10 13  1  0  0  0  0
 13 14  1  0  0  0  0
 13 15  1  0  0  0  0
 13 16  1  0  0  0  0
 16 17  1  0  0  0  0
 16 18  1  0  0  0  0
 16 19  1  0  0  0  0
 19 20  1  0  0  0  0
 19 21  1  0  0  0  0
 19 22  1  0  0  0  0
M  END
> <VConfSearch Rank>
930

> <Conf_Id>
44

> <Delta U+W>
-0.155

> <U+W>
-53.314

> <U>
7.937

> <W>
-61.252

> <W(PB)>
-63.556

> <W(SA)>
2.304

> <Valence>
7.358

> <Coulomb>
-0.021

> <VdW>
0.600

> <VdW6>
-7.363

> <VdW12>
7.964

> <Bond>
0.121

> <Angle>
2.425

> <Pdih>
4.811

> <Idih>
0.001

> <Tether>
0.000

$$$$
VeraChem MOL file


 22 21  0  0  0  0  0  0  0  0999 V2000     
   16.7311   18.8241   24.1483 C   0  0  0  0  0  0  0  0  0  0  0  0
   15.7708   19.1159   23.4630 O   0  5  0  0  0  0  0  0  0  0  0  0
   16.9434   19.3011   25.2457 O   0  0  0  0  0  0  0  0  0  0  0  0
   17.7123   17.7878   23.6076 C   0  0  0  0  0  0  0  0  0  0  0  0
   17.1215   16.9539   23.2108 H   0  0  0  0  0  0  0  0  0  0  0  0
   18.2996   17.3908   24.4444 H   0  0  0  0  0  0  0  0  0  0  0  0
   18.6552   18.3267   22.5002 C   0  0  0  0  0  0  0  0  0  0  0  0
   19.2072   17.4805   22.0720 H   0  0  0  0  0  0  0  0  0  0  0  0
   18.0534   18.7572   21.6878 H   0  0  0  0  0  0  0  0  0  0  0  0
   19.6521   19.3843   23.0319 C   0  0  0  0  0  0  0  0  0  0  0  0
   20.2815   18.9398   23.8149 H   0  0  0  0  0  0  0  0  0  0  0  0
   19.0918   20.1988   23.5112 H   0  0  0  0  0  0  0  0  0  0  0  0
   20.5496   19.9951   21.9295 C   0  0  0  0  0  0  0  0  0  0  0  0
   19.9197   20.4393   21.1466 H   0  0  0  0  0  0  0  0  0  0  0  0
   21.1265   20.8203   22.3690 H   0  0  0  0  0  0  0  0  0  0  0  0
   21.5291   18.9804   21.2976 C   0  0  0  0  0  0  0  0  0  0  0  0
   20.9724   18.1872   20.7818 H   0  0  0  0  0  0  0  0  0  0  0  0
   22.1213   18.4963   22.0863 H   0  0  0  0  0  0  0  0  0  0  0  0
   22.4776   19.6622   20.2909 C   0  0  0  0  0  0  0  0  0  0  0  0
   21.9122   20.1321   19.4755 H   0  0  0  0  0  0  0  0  0  0  0  0
   23.1642   18.9287   19.8487 H   0  0  0  0  0  0  0  0  0  0  0  0
   23.0805   20.4376   20.7816 H   0  0  0  0  0  0  0  0  0  0  0  0
  1  2  1  0  0  0  0
  1  3  2  0  0  0  0
  1  4  1  0  0  0  0
  4  5  1  0  0  0  0
  4  6  1  0  0  0  0
  4  7  1  0  0  0  0
  7  8  1  0  0  0  0
  7  9  1  0  0  0  0
  7 10  1  0  0  0  0
 10 11  1  0  0  0  0
 10 12  1  0  0  0  0
 10 13  1  0  0  0  0
 13 14  1  0  0  0  0
 13 15  1  0  0  0  0
 13 16  1  0  0  0  0
 16 17  1  0  0  0  0
 16 18  1  0  0  0  0
 16 19  1  0  0  0  0
 19 20  1  0  0  0  0
 19 21  1  0  0  0  0
 19 22  1  0  0  0  0
M  END
> <VConfSearch Rank>
931

> <Conf_Id>
53

> <Delta U+W>
0.723

> <U+W>
-52.436

> <U>
8.587

> <W>
-61.022

> <W(PB)>
-63.285

> <W(SA)>
2.263

> <Valence>
7.933

> <Coulomb>
-0.124

> <VdW>
0.778

> <VdW6>
-7.981

> <VdW12>
8.759

> <Bond>
0.160

> <Angle>
2.698

> <Pdih>
5.074

> <Idih>
0.001

> <Tether>
0.000

$$$$
VeraChem MOL file


 22 21  0  0  0  0  0  0  0  0999 V2000     
   22.0738   18.4308   19.9960 C   0  0  0  0  0  0  0  0  0  0  0  0
   21.6078   17.6956   19.1481 O   0  5  0  0  0  0  0  0  0  0  0  0
   23.1806   18.9267   19.9217 O   0  0  0  0  0  0  0  0  0  0  0  0
   21.2141   18.7675   21.2091 C   0  0  0  0  0  0  0  0  0  0  0  0
   21.8805   18.9338   22.0638 H   0  0  0  0  0  0  0  0  0  0  0  0
   20.6004   17.8881   21.4344 H   0  0  0  0  0  0  0  0  0  0  0  0
   20.3141   20.0081   20.9812 C   0  0  0  0  0  0  0  0  0  0  0  0
   20.9410   20.8368   20.6239 H   0  0  0  0  0  0  0  0  0  0  0  0
   19.6000   19.7931   20.1744 H   0  0  0  0  0  0  0  0  0  0  0  0
   19.5468   20.4808   22.2416 C   0  0  0  0  0  0  0  0  0  0  0  0
   18.9879   21.3862   21.9680 H   0  0  0  0  0  0  0  0  0  0  0  0
   20.2560   20.7922   23.0206 H   0  0  0  0  0  0  0  0  0  0  0  0
   18.5421   19.4474   22.8112 C   0  0  0  0  0  0  0  0  0  0  0  0
   17.6620   19.9878   23.1860 H   0  0  0  0  0  0  0  0  0  0  0  0
   18.1786   18.7919   22.0080 H   0  0  0  0  0  0  0  0  0  0  0  0
   19.1200   18.6066   23.9730 C   0  0  0  0  0  0  0  0  0  0  0  0
   19.4259   19.2725   24.7917 H   0  0  0  0  0  0  0  0  0  0  0  0
   20.0209   18.0708   23.6513 H   0  0  0  0  0  0  0  0  0  0  0  0
   18.0886   17.5902   24.5027 C   0  0  0  0  0  0  0  0  0  0  0  0
   17.1884   18.0992   24.8713 H   0  0  0  0  0  0  0  0  0  0  0  0
   18.5110   17.0064   25.3309 H   0  0  0  0  0  0  0  0  0  0  0  0
   17.7875   16.8894   23.7131 H   0  0  0  0  0  0  0  0  0  0  0  0
  1  2  1  0  0  0  0
  1  3  2  0  0  0  0
  1  4  1  0  0  0  0
  4  5  1  0  0  0  0
  4  6  1  0  0  0  0
  4  7  1  0  0  0  0
  7  8  1  0  0  0  0
  7  9  1  0  0  0  0
  7 10  1  0  0  0  0
 10 11  1  0  0  0  0
 10 12  1  0  0  0  0
 10 13  1  0  0  0  0
 13 14  1  0  0  0  0
 13 15  1  0  0  0  0
 13 16  1  0  0  0  0
 16 17  1  0  0  0  0
 16 18  1  0  0  0  0
 16 19  1  0  0  0  0
 19 20  1  0  0  0  0
 19 21  1  0  0  0  0
 19 22  1  0  0  0  0
M  END
> <VConfSearch Rank>
932

> <Conf_Id>
5

> <Delta U+W>
2.167

> <U+W>
-50.993

> <U>
10.045

> <W>
-61.037

> <W(PB)>
-63.303

> <W(SA)>
2.266

> <Valence>
10.100

> <Coulomb>
-0.883

> <VdW>
0.828

> <VdW6>
-8.177

> <VdW12>
9.005

> <Bond>
0.182

> <Angle>
2.988

> <Pdih>
6.930

> <Idih>
0.001

> <Tether>
0.000

$$$$
VeraChem MOL file


 22 21  0  0  0  0  0  0  0  0999 V2000     
   21.4135   17.0610   20.0220 C   0  0  0  0  0  0  0  0  0  0  0  0
   22.3571   16.4887   20.5307 O   0  5  0  0  0  0  0  0  0  0  0  0
   21.1549   17.0083   18.8359 O   0  0  0  0  0  0  0  0  0  0  0  0
   20.5181   17.9102   20.9171 C   0  0  0  0  0  0  0  0  0  0  0  0
   20.4816   17.4292   21.9009 H   0  0  0  0  0  0  0  0  0  0  0  0
   19.5037   17.8910   20.5013 H   0  0  0  0  0  0  0  0  0  0  0  0
   21.0156   19.3717   21.0503 C   0  0  0  0  0  0  0  0  0  0  0  0
   21.9984   19.3754   21.5415 H   0  0  0  0  0  0  0  0  0  0  0  0
   21.1737   19.7828   20.0436 H   0  0  0  0  0  0  0  0  0  0  0  0
   20.0483   20.3083   21.8170 C   0  0  0  0  0  0  0  0  0  0  0  0
   19.0942   20.3884   21.2783 H   0  0  0  0  0  0  0  0  0  0  0  0
   20.4841   21.3166   21.8029 H   0  0  0  0  0  0  0  0  0  0  0  0
   19.7999   19.9108   23.2942 C   0  0  0  0  0  0  0  0  0  0  0  0
   20.6704   19.3709   23.6913 H   0  0  0  0  0  0  0  0  0  0  0  0
   19.7114   20.8287   23.8914 H   0  0  0  0  0  0  0  0  0  0  0  0
   18.5118   19.0799   23.4972 C   0  0  0  0  0  0  0  0  0  0  0  0
   18.5434   18.1646   22.8942 H   0  0  0  0  0  0  0  0  0  0  0  0
   17.6440   19.6563   23.1482 H   0  0  0  0  0  0  0  0  0  0  0  0
   18.3097   18.7033   24.9786 C   0  0  0  0  0  0  0  0  0  0  0  0
   19.1481   18.0979   25.3472 H   0  0  0  0  0  0  0  0  0  0  0  0
   17.3884   18.1204   25.1073 H   0  0  0  0  0  0  0  0  0  0  0  0
   18.2331   19.6012   25.6057 H   0  0  0  0  0  0  0  0  0  0  0  0
  1  2  1  0  0  0  0
  1  3  2  0  0  0  0
  1  4  1  0  0  0  0
  4  5  1  0  0  0  0
  4  6  1  0  0  0  0
  4  7  1  0  0  0  0
  7  8  1  0  0  0  0
  7  9  1  0  0  0  0
  7 10  1  0  0  0  0
 10 11  1  0  0  0  0
 10 12  1  0  0  0  0
 10 13  1  0  0  0  0
 13 14  1  0  0  0  0
 13 15  1  0  0  0  0
 13 16  1  0  0  0  0
 16 17  1  0  0  0  0
 16 18  1  0  0  0  0
 16 19  1  0  0  0  0
 19 20  1  0  0  0  0
 19 21  1  0  0  0  0
 19 22  1  0  0  0  0
M  END
> <VConfSearch Rank>
933

> <Conf_Id>
6

> <Delta U+W>
2.118

> <U+W>
-51.042

> <U>
10.045

> <W>
-61.086

> <W(PB)>
-63.356

> <W(SA)>
2.270

> <Valence>
10.100

> <Coulomb>
-0.883

> <VdW>
0.828

> <VdW6>
-8.177

> <VdW12>
9.004

> <Bond>
0.182

> <Angle>
2.988

> <Pdih>
6.930

> <Idih>
0.001

> <Tether>
0.000

$$$$
VeraChem MOL file


 22 21  0  0  0  0  0  0  0  0999 V2000     
   20.3676   18.1202   20.1407 C   0  0  0  0  0  0  0  0  0  0  0  0
   21.4771   18.5699   19.9304 O   0  5  0  0  0  0  0  0  0  0  0  0
   19.3685   18.5045   19.5652 O   0  0  0  0  0  0  0  0  0  0  0  0
   20.2294   16.9628   21.1280 C   0  0  0  0  0  0  0  0  0  0  0  0
   20.7980   16.1269   20.7043 H   0  0  0  0  0  0  0  0  0  0  0  0
   19.1804   16.6444   21.1597 H   0  0  0  0  0  0  0  0  0  0  0  0
   20.7485   17.2504   22.5649 C   0  0  0  0  0  0  0  0  0  0  0  0
   20.9406   16.2865   23.0551 H   0  0  0  0  0  0  0  0  0  0  0  0
   21.7190   17.7636   22.5170 H   0  0  0  0  0  0  0  0  0  0  0  0
   19.7696   18.0484   23.4616 C   0  0  0  0  0  0  0  0  0  0  0  0
   20.1707   18.0546   24.4843 H   0  0  0  0  0  0  0  0  0  0  0  0
   18.8046   17.5257   23.5118 H   0  0  0  0  0  0  0  0  0  0  0  0
   19.5463   19.5086   23.0072 C   0  0  0  0  0  0  0  0  0  0  0  0
   20.5170   20.0011   22.8579 H   0  0  0  0  0  0  0  0  0  0  0  0
   19.0264   19.5233   22.0410 H   0  0  0  0  0  0  0  0  0  0  0  0
   18.7149   20.3050   24.0349 C   0  0  0  0  0  0  0  0  0  0  0  0
   19.2280   20.3066   25.0066 H   0  0  0  0  0  0  0  0  0  0  0  0
   17.7443   19.8126   24.1866 H   0  0  0  0  0  0  0  0  0  0  0  0
   18.4855   21.7589   23.5753 C   0  0  0  0  0  0  0  0  0  0  0  0
   19.4405   22.2848   23.4458 H   0  0  0  0  0  0  0  0  0  0  0  0
   17.8923   22.3102   24.3164 H   0  0  0  0  0  0  0  0  0  0  0  0
   17.9462   21.7877   22.6194 H   0  0  0  0  0  0  0  0  0  0  0  0
  1  2  1  0  0  0  0
  1  3  2  0  0  0  0
  1  4  1  0  0  0  0
  4  5  1  0  0  0  0
  4  6  1  0  0  0  0
  4  7  1  0  0  0  0
  7  8  1  0  0  0  0
  7  9  1  0  0  0  0
  7 10  1  0  0  0  0
 10 11  1  0  0  0  0
 10 12  1  0  0  0  0
 10 13  1  0  0  0  0
 13 14  1  0  0  0  0
 13 15  1  0  0  0  0
 13 16  1  0  0  0  0
 16 17  1  0  0  0  0
 16 18  1  0  0  0  0
 16 19  1  0  0  0  0
 19 20  1  0  0  0  0
 19 21  1  0  0  0  0
 19 22  1  0  0  0  0
M  END
> <VConfSearch Rank>
934

> <Conf_Id>
8

> <Delta U+W>
1.886

> <U+W>
-51.274

> <U>
11.237

> <W>
-62.510

> <W(PB)>
-64.777

> <W(SA)>
2.267

> <Valence>
9.029

> <Coulomb>
1.667

> <VdW>
0.540

> <VdW6>
-8.825

> <VdW12>
9.365

> <Bond>
0.186

> <Angle>
3.195

> <Pdih>
5.642

> <Idih>
0.007

> <Tether>
0.000

$$$$
VeraChem MOL file


 22 21  0  0  0  0  0  0  0  0999 V2000     
   20.5701   16.5863   24.2405 C   0  0  0  0  0  0  0  0  0  0  0  0
   21.6027   16.5055   23.6049 O   0  5  0  0  0  0  0  0  0  0  0  0
   19.8837   15.6267   24.5323 O   0  0  0  0  0  0  0  0  0  0  0  0
   20.1247   17.9631   24.7256 C   0  0  0  0  0  0  0  0  0  0  0  0
   20.9666   18.6582   24.6316 H   0  0  0  0  0  0  0  0  0  0  0  0
   19.9133   17.8775   25.7978 H   0  0  0  0  0  0  0  0  0  0  0  0
   18.8691   18.5178   23.9983 C   0  0  0  0  0  0  0  0  0  0  0  0
   18.0278   17.8352   24.1817 H   0  0  0  0  0  0  0  0  0  0  0  0
   18.5878   19.4796   24.4477 H   0  0  0  0  0  0  0  0  0  0  0  0
   19.0370   18.6993   22.4694 C   0  0  0  0  0  0  0  0  0  0  0  0
   18.0665   19.0015   22.0561 H   0  0  0  0  0  0  0  0  0  0  0  0
   19.2840   17.7342   22.0061 H   0  0  0  0  0  0  0  0  0  0  0  0
   20.1099   19.7482   22.0874 C   0  0  0  0  0  0  0  0  0  0  0  0
   19.8771   20.7097   22.5647 H   0  0  0  0  0  0  0  0  0  0  0  0
   21.0839   19.4299   22.4809 H   0  0  0  0  0  0  0  0  0  0  0  0
   20.2559   19.9496   20.5609 C   0  0  0  0  0  0  0  0  0  0  0  0
   20.4734   18.9863   20.0791 H   0  0  0  0  0  0  0  0  0  0  0  0
   21.1263   20.5933   20.3734 H   0  0  0  0  0  0  0  0  0  0  0  0
   19.0148   20.5925   19.9041 C   0  0  0  0  0  0  0  0  0  0  0  0
   18.1426   19.9295   19.9581 H   0  0  0  0  0  0  0  0  0  0  0  0
   19.2072   20.8010   18.8437 H   0  0  0  0  0  0  0  0  0  0  0  0
   18.7582   21.5410   20.3936 H   0  0  0  0  0  0  0  0  0  0  0  0
  1  2  1  0  0  0  0
  1  3  2  0  0  0  0
  1  4  1  0  0  0  0
  4  5  1  0  0  0  0
  4  6  1  0  0  0  0
  4  7  1  0  0  0  0
  7  8  1  0  0  0  0
  7  9  1  0  0  0  0
  7 10  1  0  0  0  0
 10 11  1  0  0  0  0
 10 12  1  0  0  0  0
 10 13  1  0  0  0  0
 13 14  1  0  0  0  0
 13 15  1  0  0  0  0
 13 16  1  0  0  0  0
 16 17  1  0  0  0  0
 16 18  1  0  0  0  0
 16 19  1  0  0  0  0
 19 20  1  0  0  0  0
 19 21  1  0  0  0  0
 19 22  1  0  0  0  0
M  END
> <VConfSearch Rank>
935

> <Conf_Id>
93

> <Delta U+W>
1.836

> <U+W>
-51.323

> <U>
10.427

> <W>
-61.751

> <W(PB)>
-63.980

> <W(SA)>
2.230

> <Valence>
8.446

> <Coulomb>
1.306

> <VdW>
0.676

> <VdW6>
-8.928

> <VdW12>
9.604

> <Bond>
0.209

> <Angle>
3.066

> <Pdih>
5.170

> <Idih>
0.001

> <Tether>
0.000

$$$$
VeraChem MOL file


 22 21  0  0  0  0  0  0  0  0999 V2000     
   18.9660   21.5141   20.6446 C   0  0  0  0  0  0  0  0  0  0  0  0
   19.2951   21.6493   19.4824 O   0  5  0  0  0  0  0  0  0  0  0  0
   19.3024   22.2743   21.5311 O   0  0  0  0  0  0  0  0  0  0  0  0
   18.0561   20.3423   21.0025 C   0  0  0  0  0  0  0  0  0  0  0  0
   17.2138   20.3584   20.3011 H   0  0  0  0  0  0  0  0  0  0  0  0
   17.6323   20.5175   21.9977 H   0  0  0  0  0  0  0  0  0  0  0  0
   18.7512   18.9546   20.9369 C   0  0  0  0  0  0  0  0  0  0  0  0
   18.0124   18.1708   21.1519 H   0  0  0  0  0  0  0  0  0  0  0  0
   19.0917   18.7815   19.9066 H   0  0  0  0  0  0  0  0  0  0  0  0
   19.9590   18.7924   21.8927 C   0  0  0  0  0  0  0  0  0  0  0  0
   20.7196   19.5506   21.6614 H   0  0  0  0  0  0  0  0  0  0  0  0
   20.4218   17.8183   21.6907 H   0  0  0  0  0  0  0  0  0  0  0  0
   19.5761   18.8814   23.3904 C   0  0  0  0  0  0  0  0  0  0  0  0
   19.1367   19.8664   23.5940 H   0  0  0  0  0  0  0  0  0  0  0  0
   18.8013   18.1378   23.6213 H   0  0  0  0  0  0  0  0  0  0  0  0
   20.7785   18.6901   24.3441 C   0  0  0  0  0  0  0  0  0  0  0  0
   20.4515   18.9101   25.3697 H   0  0  0  0  0  0  0  0  0  0  0  0
   21.5616   19.4228   24.1048 H   0  0  0  0  0  0  0  0  0  0  0  0
   21.3702   17.2641   24.3090 C   0  0  0  0  0  0  0  0  0  0  0  0
   21.8219   17.0402   23.3347 H   0  0  0  0  0  0  0  0  0  0  0  0
   20.5963   16.5124   24.5115 H   0  0  0  0  0  0  0  0  0  0  0  0
   22.1537   17.1555   25.0701 H   0  0  0  0  0  0  0  0  0  0  0  0
  1  2  1  0  0  0  0
  1  3  2  0  0  0  0
  1  4  1  0  0  0  0
  4  5  1  0  0  0  0
  4  6  1  0  0  0  0
  4  7  1  0  0  0  0
  7  8  1  0  0  0  0
  7  9  1  0  0  0  0
  7 10  1  0  0  0  0
 10 11  1  0  0  0  0
 10 12  1  0  0  0  0
 10 13  1  0  0  0  0
 13 14  1  0  0  0  0
 13 15  1  0  0  0  0
 13 16  1  0  0  0  0
 16 17  1  0  0  0  0
 16 18  1  0  0  0  0
 16 19  1  0  0  0  0
 19 20  1  0  0  0  0
 19 21  1  0  0  0  0
 19 22  1  0  0  0  0
M  END
> <VConfSearch Rank>
936

> <Conf_Id>
70

> <Delta U+W>
1.803

> <U+W>
-51.356

> <U>
10.428

> <W>
-61.784

> <W(PB)>
-64.014

> <W(SA)>
2.230

> <Valence>
8.445

> <Coulomb>
1.306

> <VdW>
0.676

> <VdW6>
-8.929

> <VdW12>
9.605

> <Bond>
0.209

> <Angle>
3.066

> <Pdih>
5.170

> <Idih>
0.001

> <Tether>
0.000

$$$$
VeraChem MOL file


 22 21  0  0  0  0  0  0  0  0999 V2000     
   17.2723   16.7616   22.0333 C   0  0  0  0  0  0  0  0  0  0  0  0
   17.1542   16.2882   23.1464 O   0  5  0  0  0  0  0  0  0  0  0  0
   17.5093   16.0990   21.0425 O   0  0  0  0  0  0  0  0  0  0  0  0
   17.0918   18.2682   21.8700 C   0  0  0  0  0  0  0  0  0  0  0  0
   16.2037   18.5568   22.4443 H   0  0  0  0  0  0  0  0  0  0  0  0
   16.8721   18.4824   20.8170 H   0  0  0  0  0  0  0  0  0  0  0  0
   18.3094   19.1033   22.3445 C   0  0  0  0  0  0  0  0  0  0  0  0
   18.0448   20.1688   22.3144 H   0  0  0  0  0  0  0  0  0  0  0  0
   18.5216   18.8578   23.3935 H   0  0  0  0  0  0  0  0  0  0  0  0
   19.5663   18.8642   21.4742 C   0  0  0  0  0  0  0  0  0  0  0  0
   19.3072   19.0311   20.4197 H   0  0  0  0  0  0  0  0  0  0  0  0
   19.8806   17.8143   21.5528 H   0  0  0  0  0  0  0  0  0  0  0  0
   20.7535   19.7863   21.8401 C   0  0  0  0  0  0  0  0  0  0  0  0
   21.5514   19.6365   21.1000 H   0  0  0  0  0  0  0  0  0  0  0  0
   20.4440   20.8369   21.7547 H   0  0  0  0  0  0  0  0  0  0  0  0
   21.3239   19.5242   23.2523 C   0  0  0  0  0  0  0  0  0  0  0  0
   21.5843   18.4617   23.3553 H   0  0  0  0  0  0  0  0  0  0  0  0
   20.5641   19.7432   24.0139 H   0  0  0  0  0  0  0  0  0  0  0  0
   22.5723   20.3866   23.5269 C   0  0  0  0  0  0  0  0  0  0  0  0
   23.3697   20.1654   22.8053 H   0  0  0  0  0  0  0  0  0  0  0  0
   22.9633   20.1913   24.5340 H   0  0  0  0  0  0  0  0  0  0  0  0
   22.3336   21.4559   23.4573 H   0  0  0  0  0  0  0  0  0  0  0  0
  1  2  1  0  0  0  0
  1  3  2  0  0  0  0
  1  4  1  0  0  0  0
  4  5  1  0  0  0  0
  4  6  1  0  0  0  0
  4  7  1  0  0  0  0
  7  8  1  0  0  0  0
  7  9  1  0  0  0  0
  7 10  1  0  0  0  0
 10 11  1  0  0  0  0
 10 12  1  0  0  0  0
 10 13  1  0  0  0  0
 13 14  1  0  0  0  0
 13 15  1  0  0  0  0
 13 16  1  0  0  0  0
 16 17  1  0  0  0  0
 16 18  1  0  0  0  0
 16 19  1  0  0  0  0
 19 20  1  0  0  0  0
 19 21  1  0  0  0  0
 19 22  1  0  0  0  0
M  END
> <VConfSearch Rank>
937

> <Conf_Id>
85

> <Delta U+W>
0.707

> <U+W>
-52.452

> <U>
8.925

> <W>
-61.378

> <W(PB)>
-63.661

> <W(SA)>
2.283

> <Valence>
7.881

> <Coulomb>
0.349

> <VdW>
0.695

> <VdW6>
-8.049

> <VdW12>
8.743

> <Bond>
0.156

> <Angle>
2.660

> <Pdih>
5.064

> <Idih>
0.001

> <Tether>
0.000

$$$$
VeraChem MOL file


 22 21  0  0  0  0  0  0  0  0999 V2000     
   23.0794   18.1648   22.9097 C   0  0  0  0  0  0  0  0  0  0  0  0
   23.3832   18.2312   24.0845 O   0  5  0  0  0  0  0  0  0  0  0  0
   23.3875   17.2374   22.1872 O   0  0  0  0  0  0  0  0  0  0  0  0
   22.2878   19.3189   22.3007 C   0  0  0  0  0  0  0  0  0  0  0  0
   22.7652   19.5755   21.3477 H   0  0  0  0  0  0  0  0  0  0  0  0
   22.3880   20.1955   22.9521 H   0  0  0  0  0  0  0  0  0  0  0  0
   20.7892   19.0003   22.0587 C   0  0  0  0  0  0  0  0  0  0  0  0
   20.3500   19.8234   21.4812 H   0  0  0  0  0  0  0  0  0  0  0  0
   20.7034   18.0934   21.4443 H   0  0  0  0  0  0  0  0  0  0  0  0
   19.9987   18.8209   23.3755 C   0  0  0  0  0  0  0  0  0  0  0  0
   20.0184   19.7608   23.9437 H   0  0  0  0  0  0  0  0  0  0  0  0
   20.5053   18.0737   24.0015 H   0  0  0  0  0  0  0  0  0  0  0  0
   18.5301   18.3680   23.1792 C   0  0  0  0  0  0  0  0  0  0  0  0
   18.5016   17.3829   22.6937 H   0  0  0  0  0  0  0  0  0  0  0  0
   18.0943   18.2211   24.1769 H   0  0  0  0  0  0  0  0  0  0  0  0
   17.6385   19.3727   22.4075 C   0  0  0  0  0  0  0  0  0  0  0  0
   18.0124   20.3969   22.5435 H   0  0  0  0  0  0  0  0  0  0  0  0
   16.6306   19.3554   22.8447 H   0  0  0  0  0  0  0  0  0  0  0  0
   17.5114   19.0436   20.9034 C   0  0  0  0  0  0  0  0  0  0  0  0
   18.4839   19.0584   20.3984 H   0  0  0  0  0  0  0  0  0  0  0  0
   16.8632   19.7751   20.4038 H   0  0  0  0  0  0  0  0  0  0  0  0
   17.0697   18.0493   20.7577 H   0  0  0  0  0  0  0  0  0  0  0  0
  1  2  1  0  0  0  0
  1  3  2  0  0  0  0
  1  4  1  0  0  0  0
  4  5  1  0  0  0  0
  4  6  1  0  0  0  0
  4  7  1  0  0  0  0
  7  8  1  0  0  0  0
  7  9  1  0  0  0  0
  7 10  1  0  0  0  0
 10 11  1  0  0  0  0
 10 12  1  0  0  0  0
 10 13  1  0  0  0  0
 13 14  1  0  0  0  0
 13 15  1  0  0  0  0
 13 16  1  0  0  0  0
 16 17  1  0  0  0  0
 16 18  1  0  0  0  0
 16 19  1  0  0  0  0
 19 20  1  0  0  0  0
 19 21  1  0  0  0  0
 19 22  1  0  0  0  0
M  END
> <VConfSearch Rank>
938

> <Conf_Id>
82

> <Delta U+W>
3.438

> <U+W>
-49.721

> <U>
11.773

> <W>
-61.495

> <W(PB)>
-63.749

> <W(SA)>
2.254

> <Valence>
10.419

> <Coulomb>
0.565

> <VdW>
0.789

> <VdW6>
-8.847

> <VdW12>
9.636

> <Bond>
0.200

> <Angle>
3.187

> <Pdih>
7.032

> <Idih>
0.001

> <Tether>
0.000

$$$$
VeraChem MOL file


 22 21  0  0  0  0  0  0  0  0999 V2000     
   18.6741   18.5011   19.3149 C   0  0  0  0  0  0  0  0  0  0  0  0
   18.1948   17.3866   19.2422 O   0  5  0  0  0  0  0  0  0  0  0  0
   18.1164   19.5004   18.9061 O   0  0  0  0  0  0  0  0  0  0  0  0
   20.0619   18.6483   19.9327 C   0  0  0  0  0  0  0  0  0  0  0  0
   20.4847   19.6110   19.6205 H   0  0  0  0  0  0  0  0  0  0  0  0
   20.6971   17.8671   19.4988 H   0  0  0  0  0  0  0  0  0  0  0  0
   20.0821   18.5309   21.4791 C   0  0  0  0  0  0  0  0  0  0  0  0
   19.6134   17.5837   21.7795 H   0  0  0  0  0  0  0  0  0  0  0  0
   21.1279   18.4917   21.8089 H   0  0  0  0  0  0  0  0  0  0  0  0
   19.3707   19.7144   22.1751 C   0  0  0  0  0  0  0  0  0  0  0  0
   18.3586   19.8206   21.7614 H   0  0  0  0  0  0  0  0  0  0  0  0
   19.8984   20.6480   21.9374 H   0  0  0  0  0  0  0  0  0  0  0  0
   19.2491   19.5683   23.7128 C   0  0  0  0  0  0  0  0  0  0  0  0
   18.6815   20.4333   24.0822 H   0  0  0  0  0  0  0  0  0  0  0  0
   18.6426   18.6863   23.9603 H   0  0  0  0  0  0  0  0  0  0  0  0
   20.6001   19.5202   24.4693 C   0  0  0  0  0  0  0  0  0  0  0  0
   20.4875   20.0539   25.4231 H   0  0  0  0  0  0  0  0  0  0  0  0
   21.3721   20.0620   23.9057 H   0  0  0  0  0  0  0  0  0  0  0  0
   21.0730   18.0826   24.7803 C   0  0  0  0  0  0  0  0  0  0  0  0
   20.3393   17.5575   25.4058 H   0  0  0  0  0  0  0  0  0  0  0  0
   22.0258   18.1013   25.3249 H   0  0  0  0  0  0  0  0  0  0  0  0
   21.2208   17.4946   23.8675 H   0  0  0  0  0  0  0  0  0  0  0  0
  1  2  1  0  0  0  0
  1  3  2  0  0  0  0
  1  4  1  0  0  0  0
  4  5  1  0  0  0  0
  4  6  1  0  0  0  0
  4  7  1  0  0  0  0
  7  8  1  0  0  0  0
  7  9  1  0  0  0  0
  7 10  1  0  0  0  0
 10 11  1  0  0  0  0
 10 12  1  0  0  0  0
 10 13  1  0  0  0  0
 13 14  1  0  0  0  0
 13 15  1  0  0  0  0
 13 16  1  0  0  0  0
 16 17  1  0  0  0  0
 16 18  1  0  0  0  0
 16 19  1  0  0  0  0
 19 20  1  0  0  0  0
 19 21  1  0  0  0  0
 19 22  1  0  0  0  0
M  END
> <VConfSearch Rank>
939

> <Conf_Id>
94

> <Delta U+W>
3.471

> <U+W>
-49.688

> <U>
11.773

> <W>
-61.461

> <W(PB)>
-63.710

> <W(SA)>
2.248

> <Valence>
10.419

> <Coulomb>
0.566

> <VdW>
0.789

> <VdW6>
-8.847

> <VdW12>
9.636

> <Bond>
0.200

> <Angle>
3.187

> <Pdih>
7.032

> <Idih>
0.001

> <Tether>
0.000

$$$$
VeraChem MOL file


 22 21  0  0  0  0  0  0  0  0999 V2000     
   21.1879   19.9447   25.2690 C   0  0  0  0  0  0  0  0  0  0  0  0
   21.0523   19.5104   26.3958 O   0  5  0  0  0  0  0  0  0  0  0  0
   21.4802   21.0984   25.0236 O   0  0  0  0  0  0  0  0  0  0  0  0
   20.9598   18.9945   24.0990 C   0  0  0  0  0  0  0  0  0  0  0  0
   21.2702   17.9899   24.4100 H   0  0  0  0  0  0  0  0  0  0  0  0
   21.6243   19.3031   23.2840 H   0  0  0  0  0  0  0  0  0  0  0  0
   19.4850   18.9746   23.6207 C   0  0  0  0  0  0  0  0  0  0  0  0
   18.8388   18.7428   24.4784 H   0  0  0  0  0  0  0  0  0  0  0  0
   19.1942   19.9786   23.2841 H   0  0  0  0  0  0  0  0  0  0  0  0
   19.2118   17.9380   22.5021 C   0  0  0  0  0  0  0  0  0  0  0  0
   18.1410   17.9511   22.2597 H   0  0  0  0  0  0  0  0  0  0  0  0
   19.4153   16.9321   22.8938 H   0  0  0  0  0  0  0  0  0  0  0  0
   20.0336   18.1379   21.2014 C   0  0  0  0  0  0  0  0  0  0  0  0
   21.0966   17.9627   21.4125 H   0  0  0  0  0  0  0  0  0  0  0  0
   19.7427   17.3613   20.4811 H   0  0  0  0  0  0  0  0  0  0  0  0
   19.8773   19.5243   20.5297 C   0  0  0  0  0  0  0  0  0  0  0  0
   20.5213   19.5572   19.6402 H   0  0  0  0  0  0  0  0  0  0  0  0
   20.2445   20.3129   21.1999 H   0  0  0  0  0  0  0  0  0  0  0  0
   18.4261   19.8357   20.1042 C   0  0  0  0  0  0  0  0  0  0  0  0
   18.0329   19.0503   19.4457 H   0  0  0  0  0  0  0  0  0  0  0  0
   18.3810   20.7879   19.5603 H   0  0  0  0  0  0  0  0  0  0  0  0
   17.7644   19.9182   20.9755 H   0  0  0  0  0  0  0  0  0  0  0  0
  1  2  1  0  0  0  0
  1  3  2  0  0  0  0
  1  4  1  0  0  0  0
  4  5  1  0  0  0  0
  4  6  1  0  0  0  0
  4  7  1  0  0  0  0
  7  8  1  0  0  0  0
  7  9  1  0  0  0  0
  7 10  1  0  0  0  0
 10 11  1  0  0  0  0
 10 12  1  0  0  0  0
 10 13  1  0  0  0  0
 13 14  1  0  0  0  0
 13 15  1  0  0  0  0
 13 16  1  0  0  0  0
 16 17  1  0  0  0  0
 16 18  1  0  0  0  0
 16 19  1  0  0  0  0
 19 20  1  0  0  0  0
 19 21  1  0  0  0  0
 19 22  1  0  0  0  0
M  END
> <VConfSearch Rank>
940

> <Conf_Id>
56

> <Delta U+W>
0.853

> <U+W>
-52.307

> <U>
8.874

> <W>
-61.181

> <W(PB)>
-63.413

> <W(SA)>
2.232

> <Valence>
8.479

> <Coulomb>
-0.357

> <VdW>
0.753

> <VdW6>
-9.081

> <VdW12>
9.833

> <Bond>
0.221

> <Angle>
3.208

> <Pdih>
5.050

> <Idih>
0.000

> <Tether>
0.000

$$$$
VeraChem MOL file


 22 21  0  0  0  0  0  0  0  0999 V2000     
   20.3485   21.8300   19.3546 C   0  0  0  0  0  0  0  0  0  0  0  0
   19.8876   22.6993   20.0689 O   0  5  0  0  0  0  0  0  0  0  0  0
   20.7522   22.0415   18.2284 O   0  0  0  0  0  0  0  0  0  0  0  0
   20.4374   20.3925   19.8695 C   0  0  0  0  0  0  0  0  0  0  0  0
   21.4888   20.0877   19.8083 H   0  0  0  0  0  0  0  0  0  0  0  0
   19.8785   19.7595   19.1702 H   0  0  0  0  0  0  0  0  0  0  0  0
   19.9107   20.1718   21.3125 C   0  0  0  0  0  0  0  0  0  0  0  0
   20.4705   20.8134   22.0070 H   0  0  0  0  0  0  0  0  0  0  0  0
   18.8588   20.4848   21.3684 H   0  0  0  0  0  0  0  0  0  0  0  0
   20.0377   18.6966   21.7509 C   0  0  0  0  0  0  0  0  0  0  0  0
   21.0901   18.3860   21.6942 H   0  0  0  0  0  0  0  0  0  0  0  0
   19.4773   18.0572   21.0550 H   0  0  0  0  0  0  0  0  0  0  0  0
   19.5131   18.4793   23.1864 C   0  0  0  0  0  0  0  0  0  0  0  0
   20.0732   19.1186   23.8827 H   0  0  0  0  0  0  0  0  0  0  0  0
   18.4607   18.7897   23.2436 H   0  0  0  0  0  0  0  0  0  0  0  0
   19.6398   17.0053   23.6252 C   0  0  0  0  0  0  0  0  0  0  0  0
   20.6916   16.6918   23.5712 H   0  0  0  0  0  0  0  0  0  0  0  0
   19.0792   16.3629   22.9321 H   0  0  0  0  0  0  0  0  0  0  0  0
   19.1148   16.7925   25.0592 C   0  0  0  0  0  0  0  0  0  0  0  0
   19.6795   17.4002   25.7784 H   0  0  0  0  0  0  0  0  0  0  0  0
   19.2125   15.7398   25.3547 H   0  0  0  0  0  0  0  0  0  0  0  0
   18.0549   17.0688   25.1345 H   0  0  0  0  0  0  0  0  0  0  0  0
  1  2  1  0  0  0  0
  1  3  2  0  0  0  0
  1  4  1  0  0  0  0
  4  5  1  0  0  0  0
  4  6  1  0  0  0  0
  4  7  1  0  0  0  0
  7  8  1  0  0  0  0
  7  9  1  0  0  0  0
  7 10  1  0  0  0  0
 10 11  1  0  0  0  0
 10 12  1  0  0  0  0
 10 13  1  0  0  0  0
 13 14  1  0  0  0  0
 13 15  1  0  0  0  0
 13 16  1  0  0  0  0
 16 17  1  0  0  0  0
 16 18  1  0  0  0  0
 16 19  1  0  0  0  0
 19 20  1  0  0  0  0
 19 21  1  0  0  0  0
 19 22  1  0  0  0  0
M  END
> <VConfSearch Rank>
941

> <Conf_Id>
0

> <Delta U+W>
0.000

> <U+W>
-53.159

> <U>
6.763

> <W>
-59.922

> <W(PB)>
-62.256

> <W(SA)>
2.334

> <Valence>
7.600

> <Coulomb>
-2.139

> <VdW>
1.302

> <VdW6>
-6.786

> <VdW12>
8.088

> <Bond>
0.134

> <Angle>
2.720

> <Pdih>
4.746

> <Idih>
0.000

> <Tether>
0.000

$$$$
VeraChem MOL file


 22 21  0  0  0  0  0  0  0  0999 V2000     
   19.3114   14.9904   22.3583 C   0  0  0  0  0  0  0  0  0  0  0  0
   19.4709   14.4159   21.2996 O   0  5  0  0  0  0  0  0  0  0  0  0
   18.5296   14.6226   23.2126 O   0  0  0  0  0  0  0  0  0  0  0  0
   20.1209   16.2555   22.6200 C   0  0  0  0  0  0  0  0  0  0  0  0
   21.0914   16.1485   22.1206 H   0  0  0  0  0  0  0  0  0  0  0  0
   20.3158   16.3186   23.6973 H   0  0  0  0  0  0  0  0  0  0  0  0
   19.4064   17.5391   22.1300 C   0  0  0  0  0  0  0  0  0  0  0  0
   19.2068   17.4546   21.0527 H   0  0  0  0  0  0  0  0  0  0  0  0
   18.4313   17.6247   22.6294 H   0  0  0  0  0  0  0  0  0  0  0  0
   20.2457   18.8053   22.4063 C   0  0  0  0  0  0  0  0  0  0  0  0
   21.2202   18.7159   21.9068 H   0  0  0  0  0  0  0  0  0  0  0  0
   20.4446   18.8860   23.4838 H   0  0  0  0  0  0  0  0  0  0  0  0
   19.5310   20.0831   21.9169 C   0  0  0  0  0  0  0  0  0  0  0  0
   19.3320   20.0027   20.8394 H   0  0  0  0  0  0  0  0  0  0  0  0
   18.5564   20.1728   22.4162 H   0  0  0  0  0  0  0  0  0  0  0  0
   20.3692   21.3490   22.1926 C   0  0  0  0  0  0  0  0  0  0  0  0
   21.3443   21.2639   21.6930 H   0  0  0  0  0  0  0  0  0  0  0  0
   20.5687   21.4340   23.2699 H   0  0  0  0  0  0  0  0  0  0  0  0
   19.6521   22.6229   21.7025 C   0  0  0  0  0  0  0  0  0  0  0  0
   18.6867   22.7500   22.2097 H   0  0  0  0  0  0  0  0  0  0  0  0
   19.4680   22.5785   20.6210 H   0  0  0  0  0  0  0  0  0  0  0  0
   20.2618   23.5128   21.9062 H   0  0  0  0  0  0  0  0  0  0  0  0
  1  2  1  0  0  0  0
  1  3  2  0  0  0  0
  1  4  1  0  0  0  0
  4  5  1  0  0  0  0
  4  6  1  0  0  0  0
  4  7  1  0  0  0  0
  7  8  1  0  0  0  0
  7  9  1  0  0  0  0
  7 10  1  0  0  0  0
 10 11  1  0  0  0  0
 10 12  1  0  0  0  0
 10 13  1  0  0  0  0
 13 14  1  0  0  0  0
 13 15  1  0  0  0  0
 13 16  1  0  0  0  0
 16 17  1  0  0  0  0
 16 18  1  0  0  0  0
 16 19  1  0  0  0  0
 19 20  1  0  0  0  0
 19 21  1  0  0  0  0
 19 22  1  0  0  0  0
M  END
> <VConfSearch Rank>
942

> <Conf_Id>
10

> <Delta U+W>
-1.291

> <U+W>
-54.451

> <U>
5.779

> <W>
-60.230

> <W(PB)>
-62.557

> <W(SA)>
2.328

> <Valence>
7.101

> <Coulomb>
-2.079

> <VdW>
0.757

> <VdW6>
-6.496

> <VdW12>
7.253

> <Bond>
0.100

> <Angle>
2.262

> <Pdih>
4.738

> <Idih>
0.001

> <Tether>
0.000

$$$$
VeraChem MOL file


 22 21  0  0  0  0  0  0  0  0999 V2000     
   19.1945   15.9488   24.6069 C   0  0  0  0  0  0  0  0  0  0  0  0
   20.0605   15.8129   25.4483 O   0  5  0  0  0  0  0  0  0  0  0  0
   18.0434   15.5917   24.7621 O   0  0  0  0  0  0  0  0  0  0  0  0
   19.5678   16.6236   23.2919 C   0  0  0  0  0  0  0  0  0  0  0  0
   18.9487   16.1889   22.4979 H   0  0  0  0  0  0  0  0  0  0  0  0
   20.6107   16.3723   23.0640 H   0  0  0  0  0  0  0  0  0  0  0  0
   19.3848   18.1609   23.3311 C   0  0  0  0  0  0  0  0  0  0  0  0
   18.3390   18.3953   23.5735 H   0  0  0  0  0  0  0  0  0  0  0  0
   20.0012   18.5793   24.1388 H   0  0  0  0  0  0  0  0  0  0  0  0
   19.7693   18.8200   21.9887 C   0  0  0  0  0  0  0  0  0  0  0  0
   19.1502   18.4013   21.1836 H   0  0  0  0  0  0  0  0  0  0  0  0
   20.8128   18.5737   21.7528 H   0  0  0  0  0  0  0  0  0  0  0  0
   19.5883   20.3548   22.0342 C   0  0  0  0  0  0  0  0  0  0  0  0
   18.5585   20.5843   22.3403 H   0  0  0  0  0  0  0  0  0  0  0  0
   20.2445   20.7823   22.8046 H   0  0  0  0  0  0  0  0  0  0  0  0
   19.8633   21.0467   20.6788 C   0  0  0  0  0  0  0  0  0  0  0  0
   19.5996   22.1098   20.7660 H   0  0  0  0  0  0  0  0  0  0  0  0
   19.2042   20.6260   19.9069 H   0  0  0  0  0  0  0  0  0  0  0  0
   21.3343   20.9354   20.2229 C   0  0  0  0  0  0  0  0  0  0  0  0
   21.4966   21.5156   19.3053 H   0  0  0  0  0  0  0  0  0  0  0  0
   21.6106   19.8951   20.0109 H   0  0  0  0  0  0  0  0  0  0  0  0
   22.0146   21.3230   20.9925 H   0  0  0  0  0  0  0  0  0  0  0  0
  1  2  1  0  0  0  0
  1  3  2  0  0  0  0
  1  4  1  0  0  0  0
  4  5  1  0  0  0  0
  4  6  1  0  0  0  0
  4  7  1  0  0  0  0
  7  8  1  0  0  0  0
  7  9  1  0  0  0  0
  7 10  1  0  0  0  0
 10 11  1  0  0  0  0
 10 12  1  0  0  0  0
 10 13  1  0  0  0  0
 13 14  1  0  0  0  0
 13 15  1  0  0  0  0
 13 16  1  0  0  0  0
 16 17  1  0  0  0  0
 16 18  1  0  0  0  0
 16 19  1  0  0  0  0
 19 20  1  0  0  0  0
 19 21  1  0  0  0  0
 19 22  1  0  0  0  0
M  END
> <VConfSearch Rank>
943

> <Conf_Id>
37

> <Delta U+W>
-0.345

> <U+W>
-53.504

> <U>
6.751

> <W>
-60.255

> <W(PB)>
-62.592

> <W(SA)>
2.336

> <Valence>
7.602

> <Coulomb>
-1.744

> <VdW>
0.894

> <VdW6>
-7.110

> <VdW12>
8.004

> <Bond>
0.131

> <Angle>
2.489

> <Pdih>
4.982

> <Idih>
0.001

> <Tether>
0.000

$$$$
VeraChem MOL file


 22 21  0  0  0  0  0  0  0  0999 V2000     
   18.5058   17.9443   18.6965 C   0  0  0  0  0  0  0  0  0  0  0  0
   19.0222   18.5777   17.7973 O   0  5  0  0  0  0  0  0  0  0  0  0
   17.4019   17.4425   18.6185 O   0  0  0  0  0  0  0  0  0  0  0  0
   19.2766   17.7888   20.0026 C   0  0  0  0  0  0  0  0  0  0  0  0
   20.3467   17.7555   19.7648 H   0  0  0  0  0  0  0  0  0  0  0  0
   19.0117   16.8193   20.4413 H   0  0  0  0  0  0  0  0  0  0  0  0
   18.9884   18.9283   21.0108 C   0  0  0  0  0  0  0  0  0  0  0  0
   19.2472   19.8928   20.5523 H   0  0  0  0  0  0  0  0  0  0  0  0
   17.9115   18.9567   21.2277 H   0  0  0  0  0  0  0  0  0  0  0  0
   19.7802   18.7478   22.3242 C   0  0  0  0  0  0  0  0  0  0  0  0
   20.8533   18.7135   22.0954 H   0  0  0  0  0  0  0  0  0  0  0  0
   19.5179   17.7840   22.7814 H   0  0  0  0  0  0  0  0  0  0  0  0
   19.4920   19.8898   23.3257 C   0  0  0  0  0  0  0  0  0  0  0  0
   19.8006   20.8504   22.8908 H   0  0  0  0  0  0  0  0  0  0  0  0
   18.4077   19.9565   23.4893 H   0  0  0  0  0  0  0  0  0  0  0  0
   20.1840   19.6960   24.6949 C   0  0  0  0  0  0  0  0  0  0  0  0
   19.8726   18.7391   25.1360 H   0  0  0  0  0  0  0  0  0  0  0  0
   19.8357   20.4812   25.3801 H   0  0  0  0  0  0  0  0  0  0  0  0
   21.7249   19.7542   24.6149 C   0  0  0  0  0  0  0  0  0  0  0  0
   22.0591   20.6904   24.1491 H   0  0  0  0  0  0  0  0  0  0  0  0
   22.1278   18.9163   24.0323 H   0  0  0  0  0  0  0  0  0  0  0  0
   22.1636   19.7012   25.6197 H   0  0  0  0  0  0  0  0  0  0  0  0
  1  2  1  0  0  0  0
  1  3  2  0  0  0  0
  1  4  1  0  0  0  0
  4  5  1  0  0  0  0
  4  6  1  0  0  0  0
  4  7  1  0  0  0  0
  7  8  1  0  0  0  0
  7  9  1  0  0  0  0
  7 10  1  0  0  0  0
 10 11  1  0  0  0  0
 10 12  1  0  0  0  0
 10 13  1  0  0  0  0
 13 14  1  0  0  0  0
 13 15  1  0  0  0  0
 13 16  1  0  0  0  0
 16 17  1  0  0  0  0
 16 18  1  0  0  0  0
 16 19  1  0  0  0  0
 19 20  1  0  0  0  0
 19 21  1  0  0  0  0
 19 22  1  0  0  0  0
M  END
> <VConfSearch Rank>
944

> <Conf_Id>
38

> <Delta U+W>
-0.439

> <U+W>
-53.598

> <U>
6.751

> <W>
-60.350

> <W(PB)>
-62.659

> <W(SA)>
2.309

> <Valence>
7.602

> <Coulomb>
-1.744

> <VdW>
0.893

> <VdW6>
-7.110

> <VdW12>
8.004

> <Bond>
0.131

> <Angle>
2.489

> <Pdih>
4.981

> <Idih>
0.001

> <Tether>
0.000

$$$$
VeraChem MOL file


 22 21  0  0  0  0  0  0  0  0999 V2000     
   21.2215   15.9627   20.4756 C   0  0  0  0  0  0  0  0  0  0  0  0
   20.9596   14.8240   20.8093 O   0  5  0  0  0  0  0  0  0  0  0  0
   22.1917   16.2618   19.8080 O   0  0  0  0  0  0  0  0  0  0  0  0
   20.2938   17.0802   20.9392 C   0  0  0  0  0  0  0  0  0  0  0  0
   19.2776   16.6734   21.0043 H   0  0  0  0  0  0  0  0  0  0  0  0
   20.2868   17.8509   20.1606 H   0  0  0  0  0  0  0  0  0  0  0  0
   20.7171   17.6832   22.3041 C   0  0  0  0  0  0  0  0  0  0  0  0
   20.8079   16.8677   23.0350 H   0  0  0  0  0  0  0  0  0  0  0  0
   21.7165   18.1310   22.2141 H   0  0  0  0  0  0  0  0  0  0  0  0
   19.7216   18.7319   22.8553 C   0  0  0  0  0  0  0  0  0  0  0  0
   20.0308   18.9895   23.8762 H   0  0  0  0  0  0  0  0  0  0  0  0
   18.7220   18.2836   22.9360 H   0  0  0  0  0  0  0  0  0  0  0  0
   19.6489   20.0206   21.9996 C   0  0  0  0  0  0  0  0  0  0  0  0
   20.6489   20.4678   21.9174 H   0  0  0  0  0  0  0  0  0  0  0  0
   19.3369   19.7648   20.9791 H   0  0  0  0  0  0  0  0  0  0  0  0
   18.6571   21.0702   22.5533 C   0  0  0  0  0  0  0  0  0  0  0  0
   17.6578   20.6232   22.6479 H   0  0  0  0  0  0  0  0  0  0  0  0
   18.5639   21.8853   21.8224 H   0  0  0  0  0  0  0  0  0  0  0  0
   19.0898   21.6691   23.9093 C   0  0  0  0  0  0  0  0  0  0  0  0
   19.0798   20.9130   24.7041 H   0  0  0  0  0  0  0  0  0  0  0  0
   18.4057   22.4735   24.2088 H   0  0  0  0  0  0  0  0  0  0  0  0
   20.1012   22.0915   23.8475 H   0  0  0  0  0  0  0  0  0  0  0  0
  1  2  1  0  0  0  0
  1  3  2  0  0  0  0
  1  4  1  0  0  0  0
  4  5  1  0  0  0  0
  4  6  1  0  0  0  0
  4  7  1  0  0  0  0
  7  8  1  0  0  0  0
  7  9  1  0  0  0  0
  7 10  1  0  0  0  0
 10 11  1  0  0  0  0
 10 12  1  0  0  0  0
 10 13  1  0  0  0  0
 13 14  1  0  0  0  0
 13 15  1  0  0  0  0
 13 16  1  0  0  0  0
 16 17  1  0  0  0  0
 16 18  1  0  0  0  0
 16 19  1  0  0  0  0
 19 20  1  0  0  0  0
 19 21  1  0  0  0  0
 19 22  1  0  0  0  0
M  END
> <VConfSearch Rank>
945

> <Conf_Id>
60

> <Delta U+W>
0.386

> <U+W>
-52.773

> <U>
7.689

> <W>
-60.463

> <W(PB)>
-62.772

> <W(SA)>
2.309

> <Valence>
8.197

> <Coulomb>
-1.561

> <VdW>
1.053

> <VdW6>
-7.737

> <VdW12>
8.790

> <Bond>
0.181

> <Angle>
2.780

> <Pdih>
5.235

> <Idih>
0.001

> <Tether>
0.000

$$$$
VeraChem MOL file


 22 21  0  0  0  0  0  0  0  0999 V2000     
   19.7053   15.2713   23.1009 C   0  0  0  0  0  0  0  0  0  0  0  0
   20.8302   14.8265   23.2163 O   0  5  0  0  0  0  0  0  0  0  0  0
   18.7218   14.5779   22.9325 O   0  0  0  0  0  0  0  0  0  0  0  0
   19.5205   16.7839   23.1475 C   0  0  0  0  0  0  0  0  0  0  0  0
   20.2716   17.1896   23.8344 H   0  0  0  0  0  0  0  0  0  0  0  0
   18.5354   16.9929   23.5813 H   0  0  0  0  0  0  0  0  0  0  0  0
   19.6410   17.4459   21.7500 C   0  0  0  0  0  0  0  0  0  0  0  0
   20.6480   17.2717   21.3463 H   0  0  0  0  0  0  0  0  0  0  0  0
   18.9420   16.9474   21.0642 H   0  0  0  0  0  0  0  0  0  0  0  0
   19.3334   18.9625   21.7526 C   0  0  0  0  0  0  0  0  0  0  0  0
   18.3295   19.1336   22.1642 H   0  0  0  0  0  0  0  0  0  0  0  0
   19.3050   19.3047   20.7103 H   0  0  0  0  0  0  0  0  0  0  0  0
   20.3711   19.7994   22.5404 C   0  0  0  0  0  0  0  0  0  0  0  0
   20.3983   19.4604   23.5836 H   0  0  0  0  0  0  0  0  0  0  0  0
   21.3753   19.6268   22.1298 H   0  0  0  0  0  0  0  0  0  0  0  0
   20.0657   21.3156   22.5388 C   0  0  0  0  0  0  0  0  0  0  0  0
   20.7626   21.8150   23.2260 H   0  0  0  0  0  0  0  0  0  0  0  0
   19.0573   21.4917   22.9382 H   0  0  0  0  0  0  0  0  0  0  0  0
   20.1944   21.9668   21.1445 C   0  0  0  0  0  0  0  0  0  0  0  0
   21.1841   21.7740   20.7106 H   0  0  0  0  0  0  0  0  0  0  0  0
   20.0630   23.0543   21.2158 H   0  0  0  0  0  0  0  0  0  0  0  0
   19.4338   21.5862   20.4516 H   0  0  0  0  0  0  0  0  0  0  0  0
  1  2  1  0  0  0  0
  1  3  2  0  0  0  0
  1  4  1  0  0  0  0
  4  5  1  0  0  0  0
  4  6  1  0  0  0  0
  4  7  1  0  0  0  0
  7  8  1  0  0  0  0
  7  9  1  0  0  0  0
  7 10  1  0  0  0  0
 10 11  1  0  0  0  0
 10 12  1  0  0  0  0
 10 13  1  0  0  0  0
 13 14  1  0  0  0  0
 13 15  1  0  0  0  0
 13 16  1  0  0  0  0
 16 17  1  0  0  0  0
 16 18  1  0  0  0  0
 16 19  1  0  0  0  0
 19 20  1  0  0  0  0
 19 21  1  0  0  0  0
 19 22  1  0  0  0  0
M  END
> <VConfSearch Rank>
946

> <Conf_Id>
28

> <Delta U+W>
0.351

> <U+W>
-52.808

> <U>
7.689

> <W>
-60.498

> <W(PB)>
-62.768

> <W(SA)>
2.270

> <Valence>
8.197

> <Coulomb>
-1.561

> <VdW>
1.053

> <VdW6>
-7.737

> <VdW12>
8.791

> <Bond>
0.181

> <Angle>
2.780

> <Pdih>
5.235

> <Idih>
0.001

> <Tether>
0.000

$$$$
VeraChem MOL file


 22 21  0  0  0  0  0  0  0  0999 V2000     
   22.4578   21.5501   21.6236 C   0  0  0  0  0  0  0  0  0  0  0  0
   23.4591   21.5297   22.3116 O   0  5  0  0  0  0  0  0  0  0  0  0
   22.4669   21.7675   20.4281 O   0  0  0  0  0  0  0  0  0  0  0  0
   21.1178   21.2675   22.2937 C   0  0  0  0  0  0  0  0  0  0  0  0
   20.3460   21.8428   21.7684 H   0  0  0  0  0  0  0  0  0  0  0  0
   21.1638   21.6487   23.3209 H   0  0  0  0  0  0  0  0  0  0  0  0
   20.7524   19.7626   22.2971 C   0  0  0  0  0  0  0  0  0  0  0  0
   20.7326   19.4003   21.2608 H   0  0  0  0  0  0  0  0  0  0  0  0
   21.5389   19.1996   22.8185 H   0  0  0  0  0  0  0  0  0  0  0  0
   19.3880   19.5055   22.9778 C   0  0  0  0  0  0  0  0  0  0  0  0
   18.5939   20.0259   22.4250 H   0  0  0  0  0  0  0  0  0  0  0  0
   19.4038   19.9433   23.9853 H   0  0  0  0  0  0  0  0  0  0  0  0
   19.0343   18.0044   23.1017 C   0  0  0  0  0  0  0  0  0  0  0  0
   19.8261   17.4843   23.6579 H   0  0  0  0  0  0  0  0  0  0  0  0
   18.1198   17.9110   23.7033 H   0  0  0  0  0  0  0  0  0  0  0  0
   18.8114   17.3090   21.7397 C   0  0  0  0  0  0  0  0  0  0  0  0
   19.7386   17.3219   21.1519 H   0  0  0  0  0  0  0  0  0  0  0  0
   18.0569   17.8599   21.1613 H   0  0  0  0  0  0  0  0  0  0  0  0
   18.3524   15.8480   21.9194 C   0  0  0  0  0  0  0  0  0  0  0  0
   17.4047   15.7984   22.4714 H   0  0  0  0  0  0  0  0  0  0  0  0
   19.1020   15.2663   22.4719 H   0  0  0  0  0  0  0  0  0  0  0  0
   18.2017   15.3672   20.9441 H   0  0  0  0  0  0  0  0  0  0  0  0
  1  2  1  0  0  0  0
  1  3  2  0  0  0  0
  1  4  1  0  0  0  0
  4  5  1  0  0  0  0
  4  6  1  0  0  0  0
  4  7  1  0  0  0  0
  7  8  1  0  0  0  0
  7  9  1  0  0  0  0
  7 10  1  0  0  0  0
 10 11  1  0  0  0  0
 10 12  1  0  0  0  0
 10 13  1  0  0  0  0
 13 14  1  0  0  0  0
 13 15  1  0  0  0  0
 13 16  1  0  0  0  0
 16 17  1  0  0  0  0
 16 18  1  0  0  0  0
 16 19  1  0  0  0  0
 19 20  1  0  0  0  0
 19 21  1  0  0  0  0
 19 22  1  0  0  0  0
M  END
> <VConfSearch Rank>
947

> <Conf_Id>
50

> <Delta U+W>
-0.486

> <U+W>
-53.646

> <U>
7.026

> <W>
-60.672

> <W(PB)>
-62.964

> <W(SA)>
2.292

> <Valence>
7.637

> <Coulomb>
-1.488

> <VdW>
0.877

> <VdW6>
-7.165

> <VdW12>
8.043

> <Bond>
0.134

> <Angle>
2.513

> <Pdih>
4.990

> <Idih>
0.001

> <Tether>
0.000

$$$$
VeraChem MOL file


 22 21  0  0  0  0  0  0  0  0999 V2000     
   18.5097   17.2464   25.3101 C   0  0  0  0  0  0  0  0  0  0  0  0
   19.2956   17.1226   26.2285 O   0  5  0  0  0  0  0  0  0  0  0  0
   17.7590   16.3643   24.9431 O   0  0  0  0  0  0  0  0  0  0  0  0
   18.4781   18.5755   24.5638 C   0  0  0  0  0  0  0  0  0  0  0  0
   18.7171   19.3727   25.2779 H   0  0  0  0  0  0  0  0  0  0  0  0
   17.4520   18.7474   24.2171 H   0  0  0  0  0  0  0  0  0  0  0  0
   19.4601   18.6169   23.3670 C   0  0  0  0  0  0  0  0  0  0  0  0
   20.4812   18.4342   23.7293 H   0  0  0  0  0  0  0  0  0  0  0  0
   19.2135   17.7987   22.6777 H   0  0  0  0  0  0  0  0  0  0  0  0
   19.4041   19.9730   22.6262 C   0  0  0  0  0  0  0  0  0  0  0  0
   19.5778   20.7819   23.3490 H   0  0  0  0  0  0  0  0  0  0  0  0
   18.3964   20.1315   22.2185 H   0  0  0  0  0  0  0  0  0  0  0  0
   20.4476   20.0987   21.4909 C   0  0  0  0  0  0  0  0  0  0  0  0
   20.4223   21.1279   21.1074 H   0  0  0  0  0  0  0  0  0  0  0  0
   21.4559   19.9442   21.8989 H   0  0  0  0  0  0  0  0  0  0  0  0
   20.2044   19.1211   20.3190 C   0  0  0  0  0  0  0  0  0  0  0  0
   19.1780   19.2387   19.9450 H   0  0  0  0  0  0  0  0  0  0  0  0
   20.3028   18.0837   20.6647 H   0  0  0  0  0  0  0  0  0  0  0  0
   21.2000   19.3616   19.1663 C   0  0  0  0  0  0  0  0  0  0  0  0
   22.2347   19.2234   19.5063 H   0  0  0  0  0  0  0  0  0  0  0  0
   21.1027   20.3803   18.7687 H   0  0  0  0  0  0  0  0  0  0  0  0
   21.0166   18.6581   18.3438 H   0  0  0  0  0  0  0  0  0  0  0  0
  1  2  1  0  0  0  0
  1  3  2  0  0  0  0
  1  4  1  0  0  0  0
  4  5  1  0  0  0  0
  4  6  1  0  0  0  0
  4  7  1  0  0  0  0
  7  8  1  0  0  0  0
  7  9  1  0  0  0  0
  7 10  1  0  0  0  0
 10 11  1  0  0  0  0
 10 12  1  0  0  0  0
 10 13  1  0  0  0  0
 13 14  1  0  0  0  0
 13 15  1  0  0  0  0
 13 16  1  0  0  0  0
 16 17  1  0  0  0  0
 16 18  1  0  0  0  0
 16 19  1  0  0  0  0
 19 20  1  0  0  0  0
 19 21  1  0  0  0  0
 19 22  1  0  0  0  0
M  END
> <VConfSearch Rank>
948

> <Conf_Id>
51

> <Delta U+W>
-0.517

> <U+W>
-53.677

> <U>
7.026

> <W>
-60.703

> <W(PB)>
-63.007

> <W(SA)>
2.304

> <Valence>
7.638

> <Coulomb>
-1.488

> <VdW>
0.877

> <VdW6>
-7.165

> <VdW12>
8.042

> <Bond>
0.134

> <Angle>
2.513

> <Pdih>
4.990

> <Idih>
0.001

> <Tether>
0.000

$$$$
VeraChem MOL file


 22 21  0  0  0  0  0  0  0  0999 V2000     
   19.7893   19.1145   25.8111 C   0  0  0  0  0  0  0  0  0  0  0  0
   20.8638   18.9669   26.3593 O   0  5  0  0  0  0  0  0  0  0  0  0
   19.1325   20.1344   25.8828 O   0  0  0  0  0  0  0  0  0  0  0  0
   19.2271   17.9471   25.0046 C   0  0  0  0  0  0  0  0  0  0  0  0
   18.1487   18.0984   24.8747 H   0  0  0  0  0  0  0  0  0  0  0  0
   19.3499   17.0412   25.6099 H   0  0  0  0  0  0  0  0  0  0  0  0
   19.9096   17.7458   23.6267 C   0  0  0  0  0  0  0  0  0  0  0  0
   20.9921   17.6239   23.7711 H   0  0  0  0  0  0  0  0  0  0  0  0
   19.5429   16.8114   23.1805 H   0  0  0  0  0  0  0  0  0  0  0  0
   19.6398   18.9152   22.6535 C   0  0  0  0  0  0  0  0  0  0  0  0
   20.0194   19.8515   23.0856 H   0  0  0  0  0  0  0  0  0  0  0  0
   18.5562   19.0414   22.5228 H   0  0  0  0  0  0  0  0  0  0  0  0
   20.3017   18.6793   21.2788 C   0  0  0  0  0  0  0  0  0  0  0  0
   21.3852   18.5533   21.4103 H   0  0  0  0  0  0  0  0  0  0  0  0
   19.9215   17.7451   20.8433 H   0  0  0  0  0  0  0  0  0  0  0  0
   20.0334   19.8472   20.3066 C   0  0  0  0  0  0  0  0  0  0  0  0
   20.4140   20.7833   20.7382 H   0  0  0  0  0  0  0  0  0  0  0  0
   18.9504   19.9752   20.1713 H   0  0  0  0  0  0  0  0  0  0  0  0
   20.6964   19.6084   18.9352 C   0  0  0  0  0  0  0  0  0  0  0  0
   21.7849   19.5081   19.0374 H   0  0  0  0  0  0  0  0  0  0  0  0
   20.4955   20.4479   18.2570 H   0  0  0  0  0  0  0  0  0  0  0  0
   20.3103   18.6939   18.4662 H   0  0  0  0  0  0  0  0  0  0  0  0
  1  2  1  0  0  0  0
  1  3  2  0  0  0  0
  1  4  1  0  0  0  0
  4  5  1  0  0  0  0
  4  6  1  0  0  0  0
  4  7  1  0  0  0  0
  7  8  1  0  0  0  0
  7  9  1  0  0  0  0
  7 10  1  0  0  0  0
 10 11  1  0  0  0  0
 10 12  1  0  0  0  0
 10 13  1  0  0  0  0
 13 14  1  0  0  0  0
 13 15  1  0  0  0  0
 13 16  1  0  0  0  0
 16 17  1  0  0  0  0
 16 18  1  0  0  0  0
 16 19  1  0  0  0  0
 19 20  1  0  0  0  0
 19 21  1  0  0  0  0
 19 22  1  0  0  0  0
M  END
> <VConfSearch Rank>
949

> <Conf_Id>
43

> <Delta U+W>
-0.129

> <U+W>
-53.289

> <U>
7.937

> <W>
-61.225

> <W(PB)>
-63.523

> <W(SA)>
2.297

> <Valence>
7.358

> <Coulomb>
-0.022

> <VdW>
0.601

> <VdW6>
-7.363

> <VdW12>
7.964

> <Bond>
0.121

> <Angle>
2.425

> <Pdih>
4.811

> <Idih>
0.000

> <Tether>
0.000

$$$$
VeraChem MOL file


 22 21  0  0  0  0  0  0  0  0999 V2000     
   18.9310   22.3594   21.5351 C   0  0  0  0  0  0  0  0  0  0  0  0
   19.8971   23.0961   21.5603 O   0  5  0  0  0  0  0  0  0  0  0  0
   17.9604   22.4985   22.2529 O   0  0  0  0  0  0  0  0  0  0  0  0
   18.9309   21.2080   20.5334 C   0  0  0  0  0  0  0  0  0  0  0  0
   19.2672   21.6108   19.5707 H   0  0  0  0  0  0  0  0  0  0  0  0
   17.8980   20.8672   20.3915 H   0  0  0  0  0  0  0  0  0  0  0  0
   19.8364   20.0169   20.9412 C   0  0  0  0  0  0  0  0  0  0  0  0
   19.8841   19.3035   20.1074 H   0  0  0  0  0  0  0  0  0  0  0  0
   20.8608   20.3787   21.1069 H   0  0  0  0  0  0  0  0  0  0  0  0
   19.3275   19.2892   22.2058 C   0  0  0  0  0  0  0  0  0  0  0  0
   18.2987   18.9412   22.0398 H   0  0  0  0  0  0  0  0  0  0  0  0
   19.2933   19.9928   23.0491 H   0  0  0  0  0  0  0  0  0  0  0  0
   20.2255   18.0890   22.5751 C   0  0  0  0  0  0  0  0  0  0  0  0
   20.2590   17.3826   21.7343 H   0  0  0  0  0  0  0  0  0  0  0  0
   21.2540   18.4379   22.7410 H   0  0  0  0  0  0  0  0  0  0  0  0
   19.7183   17.3622   23.8383 C   0  0  0  0  0  0  0  0  0  0  0  0
   18.6901   17.0103   23.6755 H   0  0  0  0  0  0  0  0  0  0  0  0
   19.6851   18.0654   24.6820 H   0  0  0  0  0  0  0  0  0  0  0  0
   20.6178   16.1647   24.2044 C   0  0  0  0  0  0  0  0  0  0  0  0
   20.6440   15.4295   23.3894 H   0  0  0  0  0  0  0  0  0  0  0  0
   20.2428   15.6600   25.1043 H   0  0  0  0  0  0  0  0  0  0  0  0
   21.6465   16.4926   24.4036 H   0  0  0  0  0  0  0  0  0  0  0  0
  1  2  1  0  0  0  0
  1  3  2  0  0  0  0
  1  4  1  0  0  0  0
  4  5  1  0  0  0  0
  4  6  1  0  0  0  0
  4  7  1  0  0  0  0
  7  8  1  0  0  0  0
  7  9  1  0  0  0  0
  7 10  1  0  0  0  0
 10 11  1  0  0  0  0
 10 12  1  0  0  0  0
 10 13  1  0  0  0  0
 13 14  1  0  0  0  0
 13 15  1  0  0  0  0
 13 16  1  0  0  0  0
 16 17  1  0  0  0  0
 16 18  1  0  0  0  0
 16 19  1  0  0  0  0
 19 20  1  0  0  0  0
 19 21  1  0  0  0  0
 19 22  1  0  0  0  0
M  END
> <VConfSearch Rank>
950

> <Conf_Id>
44

> <Delta U+W>
-0.155

> <U+W>
-53.314

> <U>
7.937

> <W>
-61.252

> <W(PB)>
-63.556

> <W(SA)>
2.304

> <Valence>
7.358

> <Coulomb>
-0.021

> <VdW>
0.600

> <VdW6>
-7.363

> <VdW12>
7.964

> <Bond>
0.121

> <Angle>
2.425

> <Pdih>
4.811

> <Idih>
0.001

> <Tether>
0.000

$$$$
VeraChem MOL file


 22 21  0  0  0  0  0  0  0  0999 V2000     
   19.9458   20.6951   25.4178 C   0  0  0  0  0  0  0  0  0  0  0  0
   19.1735   21.6320   25.4703 O   0  5  0  0  0  0  0  0  0  0  0  0
   21.1223   20.7766   25.7111 O   0  0  0  0  0  0  0  0  0  0  0  0
   19.4020   19.3387   24.9777 C   0  0  0  0  0  0  0  0  0  0  0  0
   18.4638   19.1711   25.5196 H   0  0  0  0  0  0  0  0  0  0  0  0
   20.1005   18.5584   25.3037 H   0  0  0  0  0  0  0  0  0  0  0  0
   19.1459   19.2245   23.4523 C   0  0  0  0  0  0  0  0  0  0  0  0
   18.6166   18.2829   23.2585 H   0  0  0  0  0  0  0  0  0  0  0  0
   18.4772   20.0362   23.1339 H   0  0  0  0  0  0  0  0  0  0  0  0
   20.4536   19.2673   22.6257 C   0  0  0  0  0  0  0  0  0  0  0  0
   21.1031   18.4301   22.9157 H   0  0  0  0  0  0  0  0  0  0  0  0
   21.0050   20.1854   22.8709 H   0  0  0  0  0  0  0  0  0  0  0  0
   20.2182   19.2356   21.0969 C   0  0  0  0  0  0  0  0  0  0  0  0
   19.5686   20.0729   20.8073 H   0  0  0  0  0  0  0  0  0  0  0  0
   21.1807   19.4014   20.5938 H   0  0  0  0  0  0  0  0  0  0  0  0
   19.6121   17.9066   20.5924 C   0  0  0  0  0  0  0  0  0  0  0  0
   18.6122   17.7594   21.0212 H   0  0  0  0  0  0  0  0  0  0  0  0
   20.2329   17.0648   20.9287 H   0  0  0  0  0  0  0  0  0  0  0  0
   19.5058   17.8817   19.0543 C   0  0  0  0  0  0  0  0  0  0  0  0
   18.8674   18.6981   18.6918 H   0  0  0  0  0  0  0  0  0  0  0  0
   19.0709   16.9337   18.7119 H   0  0  0  0  0  0  0  0  0  0  0  0
   20.4950   17.9877   18.5899 H   0  0  0  0  0  0  0  0  0  0  0  0
  1  2  1  0  0  0  0
  1  3  2  0  0  0  0
  1  4  1  0  0  0  0
  4  5  1  0  0  0  0
  4  6  1  0  0  0  0
  4  7  1  0  0  0  0
  7  8  1  0  0  0  0
  7  9  1  0  0  0  0
  7 10  1  0  0  0  0
 10 11  1  0  0  0  0
 10 12  1  0  0  0  0
 10 13  1  0  0  0  0
 13 14  1  0  0  0  0
 13 15  1  0  0  0  0
 13 16  1  0  0  0  0
 16 17  1  0  0  0  0
 16 18  1  0  0  0  0
 16 19  1  0  0  0  0
 19 20  1  0  0  0  0
 19 21  1  0  0  0  0
 19 22  1  0  0  0  0
M  END
> <VConfSearch Rank>
951

> <Conf_Id>
53

> <Delta U+W>
0.723

> <U+W>
-52.436

> <U>
8.587

> <W>
-61.022

> <W(PB)>
-63.285

> <W(SA)>
2.263

> <Valence>
7.933

> <Coulomb>
-0.124

> <VdW>
0.778

> <VdW6>
-7.981

> <VdW12>
8.759

> <Bond>
0.160

> <Angle>
2.698

> <Pdih>
5.074

> <Idih>
0.001

> <Tether>
0.000

$$$$
VeraChem MOL file


 22 21  0  0  0  0  0  0  0  0999 V2000     
   18.4780   18.0042   25.2750 C   0  0  0  0  0  0  0  0  0  0  0  0
   17.2688   18.1175   25.2355 O   0  5  0  0  0  0  0  0  0  0  0  0
   19.0787   17.5296   26.2187 O   0  0  0  0  0  0  0  0  0  0  0  0
   19.2846   18.4620   24.0650 C   0  0  0  0  0  0  0  0  0  0  0  0
   20.2628   18.8089   24.4186 H   0  0  0  0  0  0  0  0  0  0  0  0
   18.7663   19.3230   23.6281 H   0  0  0  0  0  0  0  0  0  0  0  0
   19.4624   17.3458   23.0050 C   0  0  0  0  0  0  0  0  0  0  0  0
   19.8569   16.4485   23.5016 H   0  0  0  0  0  0  0  0  0  0  0  0
   18.4776   17.0675   22.6048 H   0  0  0  0  0  0  0  0  0  0  0  0
   20.4109   17.7184   21.8379 C   0  0  0  0  0  0  0  0  0  0  0  0
   20.4930   16.8387   21.1851 H   0  0  0  0  0  0  0  0  0  0  0  0
   21.4246   17.9023   22.2193 H   0  0  0  0  0  0  0  0  0  0  0  0
   19.9352   18.9156   20.9763 C   0  0  0  0  0  0  0  0  0  0  0  0
   20.2032   18.7190   19.9292 H   0  0  0  0  0  0  0  0  0  0  0  0
   18.8393   18.9878   21.0026 H   0  0  0  0  0  0  0  0  0  0  0  0
   20.5739   20.2613   21.3909 C   0  0  0  0  0  0  0  0  0  0  0  0
   21.6670   20.1913   21.3043 H   0  0  0  0  0  0  0  0  0  0  0  0
   20.3563   20.4847   22.4422 H   0  0  0  0  0  0  0  0  0  0  0  0
   20.0675   21.4221   20.5115 C   0  0  0  0  0  0  0  0  0  0  0  0
   20.3067   21.2478   19.4543 H   0  0  0  0  0  0  0  0  0  0  0  0
   20.5348   22.3685   20.8133 H   0  0  0  0  0  0  0  0  0  0  0  0
   18.9794   21.5373   20.6026 H   0  0  0  0  0  0  0  0  0  0  0  0
  1  2  1  0  0  0  0
  1  3  2  0  0  0  0
  1  4  1  0  0  0  0
  4  5  1  0  0  0  0
  4  6  1  0  0  0  0
  4  7  1  0  0  0  0
  7  8  1  0  0  0  0
  7  9  1  0  0  0  0
  7 10  1  0  0  0  0
 10 11  1  0  0  0  0
 10 12  1  0  0  0  0
 10 13  1  0  0  0  0
 13 14  1  0  0  0  0
 13 15  1  0  0  0  0
 13 16  1  0  0  0  0
 16 17  1  0  0  0  0
 16 18  1  0  0  0  0
 16 19  1  0  0  0  0
 19 20  1  0  0  0  0
 19 21  1  0  0  0  0
 19 22  1  0  0  0  0
M  END
> <VConfSearch Rank>
952

> <Conf_Id>
5

> <Delta U+W>
2.167

> <U+W>
-50.993

> <U>
10.045

> <W>
-61.037

> <W(PB)>
-63.303

> <W(SA)>
2.266

> <Valence>
10.100

> <Coulomb>
-0.883

> <VdW>
0.828

> <VdW6>
-8.177

> <VdW12>
9.005

> <Bond>
0.182

> <Angle>
2.988

> <Pdih>
6.930

> <Idih>
0.001

> <Tether>
0.000

$$$$
VeraChem MOL file


 22 21  0  0  0  0  0  0  0  0999 V2000     
   20.1039   19.0804   25.6816 C   0  0  0  0  0  0  0  0  0  0  0  0
   20.9444   18.2899   26.0628 O   0  5  0  0  0  0  0  0  0  0  0  0
   19.4221   19.7509   26.4314 O   0  0  0  0  0  0  0  0  0  0  0  0
   19.8761   19.2223   24.1810 C   0  0  0  0  0  0  0  0  0  0  0  0
   20.8407   19.0705   23.6838 H   0  0  0  0  0  0  0  0  0  0  0  0
   19.5587   20.2525   23.9801 H   0  0  0  0  0  0  0  0  0  0  0  0
   18.8260   18.2217   23.6359 C   0  0  0  0  0  0  0  0  0  0  0  0
   19.1978   17.1970   23.7740 H   0  0  0  0  0  0  0  0  0  0  0  0
   17.9143   18.3022   24.2440 H   0  0  0  0  0  0  0  0  0  0  0  0
   18.4461   18.4405   22.1498 C   0  0  0  0  0  0  0  0  0  0  0  0
   17.9815   19.4276   22.0204 H   0  0  0  0  0  0  0  0  0  0  0  0
   17.6667   17.7087   21.8968 H   0  0  0  0  0  0  0  0  0  0  0  0
   19.6175   18.2625   21.1509 C   0  0  0  0  0  0  0  0  0  0  0  0
   20.3598   17.5636   21.5602 H   0  0  0  0  0  0  0  0  0  0  0  0
   19.2275   17.7932   20.2373 H   0  0  0  0  0  0  0  0  0  0  0  0
   20.2935   19.5956   20.7550 C   0  0  0  0  0  0  0  0  0  0  0  0
   20.6731   20.1150   21.6430 H   0  0  0  0  0  0  0  0  0  0  0  0
   19.5507   20.2617   20.2949 H   0  0  0  0  0  0  0  0  0  0  0  0
   21.4547   19.3688   19.7663 C   0  0  0  0  0  0  0  0  0  0  0  0
   22.2298   18.7313   20.2114 H   0  0  0  0  0  0  0  0  0  0  0  0
   21.9192   20.3241   19.4895 H   0  0  0  0  0  0  0  0  0  0  0  0
   21.0994   18.8856   18.8467 H   0  0  0  0  0  0  0  0  0  0  0  0
  1  2  1  0  0  0  0
  1  3  2  0  0  0  0
  1  4  1  0  0  0  0
  4  5  1  0  0  0  0
  4  6  1  0  0  0  0
  4  7  1  0  0  0  0
  7  8  1  0  0  0  0
  7  9  1  0  0  0  0
  7 10  1  0  0  0  0
 10 11  1  0  0  0  0
 10 12  1  0  0  0  0
 10 13  1  0  0  0  0
 13 14  1  0  0  0  0
 13 15  1  0  0  0  0
 13 16  1  0  0  0  0
 16 17  1  0  0  0  0
 16 18  1  0  0  0  0
 16 19  1  0  0  0  0
 19 20  1  0  0  0  0
 19 21  1  0  0  0  0
 19 22  1  0  0  0  0
M  END
> <VConfSearch Rank>
953

> <Conf_Id>
6

> <Delta U+W>
2.118

> <U+W>
-51.042

> <U>
10.045

> <W>
-61.086

> <W(PB)>
-63.356

> <W(SA)>
2.270

> <Valence>
10.100

> <Coulomb>
-0.883

> <VdW>
0.828

> <VdW6>
-8.177

> <VdW12>
9.004

> <Bond>
0.182

> <Angle>
2.988

> <Pdih>
6.930

> <Idih>
0.001

> <Tether>
0.000

$$$$
VeraChem MOL file


 22 21  0  0  0  0  0  0  0  0999 V2000     
   21.6004   18.6718   20.7604 C   0  0  0  0  0  0  0  0  0  0  0  0
   21.1676   19.1221   19.7177 O   0  5  0  0  0  0  0  0  0  0  0  0
   21.7842   17.4860   20.9533 O   0  0  0  0  0  0  0  0  0  0  0  0
   22.0015   19.6510   21.8621 C   0  0  0  0  0  0  0  0  0  0  0  0
   22.8195   20.2559   21.4538 H   0  0  0  0  0  0  0  0  0  0  0  0
   22.4188   19.0876   22.7055 H   0  0  0  0  0  0  0  0  0  0  0  0
   20.8699   20.5970   22.3537 C   0  0  0  0  0  0  0  0  0  0  0  0
   21.3394   21.4615   22.8424 H   0  0  0  0  0  0  0  0  0  0  0  0
   20.3178   20.9996   21.4931 H   0  0  0  0  0  0  0  0  0  0  0  0
   19.8853   19.9607   23.3659 C   0  0  0  0  0  0  0  0  0  0  0  0
   19.2349   20.7555   23.7559 H   0  0  0  0  0  0  0  0  0  0  0  0
   20.4429   19.5679   24.2271 H   0  0  0  0  0  0  0  0  0  0  0  0
   19.0001   18.8442   22.7673 C   0  0  0  0  0  0  0  0  0  0  0  0
   18.5217   19.2060   21.8468 H   0  0  0  0  0  0  0  0  0  0  0  0
   19.6218   17.9837   22.4896 H   0  0  0  0  0  0  0  0  0  0  0  0
   17.9176   18.3784   23.7639 C   0  0  0  0  0  0  0  0  0  0  0  0
   17.2808   19.2287   24.0448 H   0  0  0  0  0  0  0  0  0  0  0  0
   18.3944   18.0178   24.6859 H   0  0  0  0  0  0  0  0  0  0  0  0
   17.0415   17.2582   23.1681 C   0  0  0  0  0  0  0  0  0  0  0  0
   16.5278   17.6023   22.2609 H   0  0  0  0  0  0  0  0  0  0  0  0
   16.2784   16.9383   23.8895 H   0  0  0  0  0  0  0  0  0  0  0  0
   17.6493   16.3822   22.9062 H   0  0  0  0  0  0  0  0  0  0  0  0
  1  2  1  0  0  0  0
  1  3  2  0  0  0  0
  1  4  1  0  0  0  0
  4  5  1  0  0  0  0
  4  6  1  0  0  0  0
  4  7  1  0  0  0  0
  7  8  1  0  0  0  0
  7  9  1  0  0  0  0
  7 10  1  0  0  0  0
 10 11  1  0  0  0  0
 10 12  1  0  0  0  0
 10 13  1  0  0  0  0
 13 14  1  0  0  0  0
 13 15  1  0  0  0  0
 13 16  1  0  0  0  0
 16 17  1  0  0  0  0
 16 18  1  0  0  0  0
 16 19  1  0  0  0  0
 19 20  1  0  0  0  0
 19 21  1  0  0  0  0
 19 22  1  0  0  0  0
M  END
> <VConfSearch Rank>
954

> <Conf_Id>
8

> <Delta U+W>
1.886

> <U+W>
-51.274

> <U>
11.237

> <W>
-62.510

> <W(PB)>
-64.777

> <W(SA)>
2.267

> <Valence>
9.029

> <Coulomb>
1.667

> <VdW>
0.540

> <VdW6>
-8.825

> <VdW12>
9.365

> <Bond>
0.186

> <Angle>
3.195

> <Pdih>
5.642

> <Idih>
0.007

> <Tether>
0.000

$$$$
VeraChem MOL file


 22 21  0  0  0  0  0  0  0  0999 V2000     
   20.7821   17.5652   24.9885 C   0  0  0  0  0  0  0  0  0  0  0  0
   20.9959   16.5608   24.3387 O   0  5  0  0  0  0  0  0  0  0  0  0
   20.2412   17.5590   26.0769 O   0  0  0  0  0  0  0  0  0  0  0  0
   21.2440   18.9053   24.4228 C   0  0  0  0  0  0  0  0  0  0  0  0
   21.9429   18.7173   23.6000 H   0  0  0  0  0  0  0  0  0  0  0  0
   21.8198   19.4088   25.2080 H   0  0  0  0  0  0  0  0  0  0  0  0
   20.0868   19.8331   23.9609 C   0  0  0  0  0  0  0  0  0  0  0  0
   19.4538   20.0626   24.8291 H   0  0  0  0  0  0  0  0  0  0  0  0
   20.5054   20.7911   23.6242 H   0  0  0  0  0  0  0  0  0  0  0  0
   19.1962   19.2437   22.8391 C   0  0  0  0  0  0  0  0  0  0  0  0
   18.3661   19.9399   22.6654 H   0  0  0  0  0  0  0  0  0  0  0  0
   18.7446   18.3021   23.1802 H   0  0  0  0  0  0  0  0  0  0  0  0
   19.9555   19.0041   21.5112 C   0  0  0  0  0  0  0  0  0  0  0  0
   20.4252   19.9391   21.1769 H   0  0  0  0  0  0  0  0  0  0  0  0
   20.7694   18.2880   21.6834 H   0  0  0  0  0  0  0  0  0  0  0  0
   19.0583   18.4430   20.3833 C   0  0  0  0  0  0  0  0  0  0  0  0
   18.5751   17.5156   20.7208 H   0  0  0  0  0  0  0  0  0  0  0  0
   19.6958   18.1679   19.5318 H   0  0  0  0  0  0  0  0  0  0  0  0
   17.9863   19.4420   19.8960 C   0  0  0  0  0  0  0  0  0  0  0  0
   17.2496   19.6554   20.6803 H   0  0  0  0  0  0  0  0  0  0  0  0
   17.4436   19.0318   19.0345 H   0  0  0  0  0  0  0  0  0  0  0  0
   18.4447   20.3901   19.5860 H   0  0  0  0  0  0  0  0  0  0  0  0
  1  2  1  0  0  0  0
  1  3  2  0  0  0  0
  1  4  1  0  0  0  0
  4  5  1  0  0  0  0
  4  6  1  0  0  0  0
  4  7  1  0  0  0  0
  7  8  1  0  0  0  0
  7  9  1  0  0  0  0
  7 10  1  0  0  0  0
 10 11  1  0  0  0  0
 10 12  1  0  0  0  0
 10 13  1  0  0  0  0
 13 14  1  0  0  0  0
 13 15  1  0  0  0  0
 13 16  1  0  0  0  0
 16 17  1  0  0  0  0
 16 18  1  0  0  0  0
 16 19  1  0  0  0  0
 19 20  1  0  0  0  0
 19 21  1  0  0  0  0
 19 22  1  0  0  0  0
M  END
> <VConfSearch Rank>
955

> <Conf_Id>
93

> <Delta U+W>
1.836

> <U+W>
-51.323

> <U>
10.427

> <W>
-61.751

> <W(PB)>
-63.980

> <W(SA)>
2.230

> <Valence>
8.446

> <Coulomb>
1.306

> <VdW>
0.676

> <VdW6>
-8.928

> <VdW12>
9.604

> <Bond>
0.209

> <Angle>
3.066

> <Pdih>
5.170

> <Idih>
0.001

> <Tether>
0.000

$$$$
VeraChem MOL file


 22 21  0  0  0  0  0  0  0  0999 V2000     
   19.3338   22.1214   21.8261 C   0  0  0  0  0  0  0  0  0  0  0  0
   18.4860   22.5859   21.0893 O   0  5  0  0  0  0  0  0  0  0  0  0
   20.5278   22.2204   21.6231 O   0  0  0  0  0  0  0  0  0  0  0  0
   18.8717   21.4011   23.0897 C   0  0  0  0  0  0  0  0  0  0  0  0
   18.1553   22.0588   23.5955 H   0  0  0  0  0  0  0  0  0  0  0  0
   19.7265   21.2966   23.7673 H   0  0  0  0  0  0  0  0  0  0  0  0
   18.2052   20.0225   22.8279 C   0  0  0  0  0  0  0  0  0  0  0  0
   17.8544   19.6048   23.7813 H   0  0  0  0  0  0  0  0  0  0  0  0
   17.3086   20.1779   22.2122 H   0  0  0  0  0  0  0  0  0  0  0  0
   19.1179   18.9882   22.1236 C   0  0  0  0  0  0  0  0  0  0  0  0
   19.4453   19.3832   21.1521 H   0  0  0  0  0  0  0  0  0  0  0  0
   18.5155   18.0968   21.9081 H   0  0  0  0  0  0  0  0  0  0  0  0
   20.3547   18.5848   22.9633 C   0  0  0  0  0  0  0  0  0  0  0  0
   20.9680   19.4747   23.1555 H   0  0  0  0  0  0  0  0  0  0  0  0
   20.0324   18.2078   23.9434 H   0  0  0  0  0  0  0  0  0  0  0  0
   21.2496   17.5302   22.2712 C   0  0  0  0  0  0  0  0  0  0  0  0
   22.1691   17.4091   22.8603 H   0  0  0  0  0  0  0  0  0  0  0  0
   21.5606   17.8987   21.2838 H   0  0  0  0  0  0  0  0  0  0  0  0
   20.5717   16.1506   22.1232 C   0  0  0  0  0  0  0  0  0  0  0  0
   19.7135   16.1954   21.4414 H   0  0  0  0  0  0  0  0  0  0  0  0
   20.2215   15.7787   23.0949 H   0  0  0  0  0  0  0  0  0  0  0  0
   21.2800   15.4173   21.7164 H   0  0  0  0  0  0  0  0  0  0  0  0
  1  2  1  0  0  0  0
  1  3  2  0  0  0  0
  1  4  1  0  0  0  0
  4  5  1  0  0  0  0
  4  6  1  0  0  0  0
  4  7  1  0  0  0  0
  7  8  1  0  0  0  0
  7  9  1  0  0  0  0
  7 10  1  0  0  0  0
 10 11  1  0  0  0  0
 10 12  1  0  0  0  0
 10 13  1  0  0  0  0
 13 14  1  0  0  0  0
 13 15  1  0  0  0  0
 13 16  1  0  0  0  0
 16 17  1  0  0  0  0
 16 18  1  0  0  0  0
 16 19  1  0  0  0  0
 19 20  1  0  0  0  0
 19 21  1  0  0  0  0
 19 22  1  0  0  0  0
M  END
> <VConfSearch Rank>
956

> <Conf_Id>
70

> <Delta U+W>
1.803

> <U+W>
-51.356

> <U>
10.428

> <W>
-61.784

> <W(PB)>
-64.014

> <W(SA)>
2.230

> <Valence>
8.445

> <Coulomb>
1.306

> <VdW>
0.676

> <VdW6>
-8.929

> <VdW12>
9.605

> <Bond>
0.209

> <Angle>
3.066

> <Pdih>
5.170

> <Idih>
0.001

> <Tether>
0.000

$$$$
VeraChem MOL file


 22 21  0  0  0  0  0  0  0  0999 V2000     
   17.9153   17.4260   24.7062 C   0  0  0  0  0  0  0  0  0  0  0  0
   18.4208   16.3216   24.7484 O   0  5  0  0  0  0  0  0  0  0  0  0
   16.7359   17.6176   24.4846 O   0  0  0  0  0  0  0  0  0  0  0  0
   18.8082   18.6359   24.9668 C   0  0  0  0  0  0  0  0  0  0  0  0
   19.4296   18.4035   25.8397 H   0  0  0  0  0  0  0  0  0  0  0  0
   18.1737   19.4857   25.2463 H   0  0  0  0  0  0  0  0  0  0  0  0
   19.7180   19.0164   23.7700 C   0  0  0  0  0  0  0  0  0  0  0  0
   20.4131   19.8055   24.0869 H   0  0  0  0  0  0  0  0  0  0  0  0
   20.3286   18.1457   23.4967 H   0  0  0  0  0  0  0  0  0  0  0  0
   18.9101   19.5089   22.5456 C   0  0  0  0  0  0  0  0  0  0  0  0
   18.2426   20.3221   22.8621 H   0  0  0  0  0  0  0  0  0  0  0  0
   18.2613   18.7022   22.1775 H   0  0  0  0  0  0  0  0  0  0  0  0
   19.7981   20.0245   21.3884 C   0  0  0  0  0  0  0  0  0  0  0  0
   19.1476   20.4645   20.6201 H   0  0  0  0  0  0  0  0  0  0  0  0
   20.4423   20.8367   21.7520 H   0  0  0  0  0  0  0  0  0  0  0  0
   20.6653   18.9221   20.7398 C   0  0  0  0  0  0  0  0  0  0  0  0
   20.0262   18.0860   20.4237 H   0  0  0  0  0  0  0  0  0  0  0  0
   21.3781   18.5214   21.4724 H   0  0  0  0  0  0  0  0  0  0  0  0
   21.4455   19.4590   19.5229 C   0  0  0  0  0  0  0  0  0  0  0  0
   20.7608   19.8338   18.7509 H   0  0  0  0  0  0  0  0  0  0  0  0
   22.0584   18.6656   19.0757 H   0  0  0  0  0  0  0  0  0  0  0  0
   22.1139   20.2792   19.8161 H   0  0  0  0  0  0  0  0  0  0  0  0
  1  2  1  0  0  0  0
  1  3  2  0  0  0  0
  1  4  1  0  0  0  0
  4  5  1  0  0  0  0
  4  6  1  0  0  0  0
  4  7  1  0  0  0  0
  7  8  1  0  0  0  0
  7  9  1  0  0  0  0
  7 10  1  0  0  0  0
 10 11  1  0  0  0  0
 10 12  1  0  0  0  0
 10 13  1  0  0  0  0
 13 14  1  0  0  0  0
 13 15  1  0  0  0  0
 13 16  1  0  0  0  0
 16 17  1  0  0  0  0
 16 18  1  0  0  0  0
 16 19  1  0  0  0  0
 19 20  1  0  0  0  0
 19 21  1  0  0  0  0
 19 22  1  0  0  0  0
M  END
> <VConfSearch Rank>
957

> <Conf_Id>
85

> <Delta U+W>
0.707

> <U+W>
-52.452

> <U>
8.925

> <W>
-61.378

> <W(PB)>
-63.661

> <W(SA)>
2.283

> <Valence>
7.881

> <Coulomb>
0.349

> <VdW>
0.695

> <VdW6>
-8.049

> <VdW12>
8.743

> <Bond>
0.156

> <Angle>
2.660

> <Pdih>
5.064

> <Idih>
0.001

> <Tether>
0.000

$$$$
VeraChem MOL file


 22 21  0  0  0  0  0  0  0  0999 V2000     
   18.7272   18.9152   19.2448 C   0  0  0  0  0  0  0  0  0  0  0  0
   18.0461   17.9426   18.9858 O   0  5  0  0  0  0  0  0  0  0  0  0
   18.4044   20.0542   18.9701 O   0  0  0  0  0  0  0  0  0  0  0  0
   20.0721   18.6946   19.9318 C   0  0  0  0  0  0  0  0  0  0  0  0
   20.8142   19.3012   19.3995 H   0  0  0  0  0  0  0  0  0  0  0  0
   20.3657   17.6461   19.8000 H   0  0  0  0  0  0  0  0  0  0  0  0
   20.0829   19.0684   21.4370 C   0  0  0  0  0  0  0  0  0  0  0  0
   21.1189   19.0259   21.7961 H   0  0  0  0  0  0  0  0  0  0  0  0
   19.7418   20.1058   21.5581 H   0  0  0  0  0  0  0  0  0  0  0  0
   19.2067   18.1231   22.2913 C   0  0  0  0  0  0  0  0  0  0  0  0
   19.6070   17.1018   22.2322 H   0  0  0  0  0  0  0  0  0  0  0  0
   18.1963   18.0815   21.8620 H   0  0  0  0  0  0  0  0  0  0  0  0
   19.0810   18.5421   23.7776 C   0  0  0  0  0  0  0  0  0  0  0  0
   18.5955   19.5248   23.8520 H   0  0  0  0  0  0  0  0  0  0  0  0
   18.3957   17.8338   24.2629 H   0  0  0  0  0  0  0  0  0  0  0  0
   20.4136   18.5405   24.5675 C   0  0  0  0  0  0  0  0  0  0  0  0
   21.1143   17.8150   24.1318 H   0  0  0  0  0  0  0  0  0  0  0  0
   20.2144   18.1953   25.5914 H   0  0  0  0  0  0  0  0  0  0  0  0
   21.0716   19.9357   24.6543 C   0  0  0  0  0  0  0  0  0  0  0  0
   21.3125   20.3362   23.6631 H   0  0  0  0  0  0  0  0  0  0  0  0
   22.0041   19.8851   25.2311 H   0  0  0  0  0  0  0  0  0  0  0  0
   20.4057   20.6504   25.1553 H   0  0  0  0  0  0  0  0  0  0  0  0
  1  2  1  0  0  0  0
  1  3  2  0  0  0  0
  1  4  1  0  0  0  0
  4  5  1  0  0  0  0
  4  6  1  0  0  0  0
  4  7  1  0  0  0  0
  7  8  1  0  0  0  0
  7  9  1  0  0  0  0
  7 10  1  0  0  0  0
 10 11  1  0  0  0  0
 10 12  1  0  0  0  0
 10 13  1  0  0  0  0
 13 14  1  0  0  0  0
 13 15  1  0  0  0  0
 13 16  1  0  0  0  0
 16 17  1  0  0  0  0
 16 18  1  0  0  0  0
 16 19  1  0  0  0  0
 19 20  1  0  0  0  0
 19 21  1  0  0  0  0
 19 22  1  0  0  0  0
M  END
> <VConfSearch Rank>
958

> <Conf_Id>
82

> <Delta U+W>
3.438

> <U+W>
-49.721

> <U>
11.773

> <W>
-61.495

> <W(PB)>
-63.749

> <W(SA)>
2.254

> <Valence>
10.419

> <Coulomb>
0.565

> <VdW>
0.789

> <VdW6>
-8.847

> <VdW12>
9.636

> <Bond>
0.200

> <Angle>
3.187

> <Pdih>
7.032

> <Idih>
0.001

> <Tether>
0.000

$$$$
VeraChem MOL file


 22 21  0  0  0  0  0  0  0  0999 V2000     
   17.5552   16.7456   21.4558 C   0  0  0  0  0  0  0  0  0  0  0  0
   16.4838   17.1670   21.8451 O   0  5  0  0  0  0  0  0  0  0  0  0
   17.7382   16.3055   20.3379 O   0  0  0  0  0  0  0  0  0  0  0  0
   18.7275   16.7488   22.4330 C   0  0  0  0  0  0  0  0  0  0  0  0
   19.4893   16.0485   22.0696 H   0  0  0  0  0  0  0  0  0  0  0  0
   18.3594   16.3509   23.3860 H   0  0  0  0  0  0  0  0  0  0  0  0
   19.3542   18.1485   22.6652 C   0  0  0  0  0  0  0  0  0  0  0  0
   18.5714   18.8508   22.9834 H   0  0  0  0  0  0  0  0  0  0  0  0
   20.0735   18.0724   23.4902 H   0  0  0  0  0  0  0  0  0  0  0  0
   20.0726   18.6946   21.4095 C   0  0  0  0  0  0  0  0  0  0  0  0
   19.3808   18.6651   20.5566 H   0  0  0  0  0  0  0  0  0  0  0  0
   20.9080   18.0304   21.1494 H   0  0  0  0  0  0  0  0  0  0  0  0
   20.5945   20.1460   21.5558 C   0  0  0  0  0  0  0  0  0  0  0  0
   21.0298   20.4387   20.5905 H   0  0  0  0  0  0  0  0  0  0  0  0
   19.7540   20.8331   21.7241 H   0  0  0  0  0  0  0  0  0  0  0  0
   21.6742   20.3406   22.6495 C   0  0  0  0  0  0  0  0  0  0  0  0
   22.4051   21.0798   22.2937 H   0  0  0  0  0  0  0  0  0  0  0  0
   22.2338   19.4076   22.8031 H   0  0  0  0  0  0  0  0  0  0  0  0
   21.0980   20.8472   23.9906 C   0  0  0  0  0  0  0  0  0  0  0  0
   20.5997   21.8165   23.8596 H   0  0  0  0  0  0  0  0  0  0  0  0
   21.9006   20.9795   24.7276 H   0  0  0  0  0  0  0  0  0  0  0  0
   20.3685   20.1467   24.4124 H   0  0  0  0  0  0  0  0  0  0  0  0
  1  2  1  0  0  0  0
  1  3  2  0  0  0  0
  1  4  1  0  0  0  0
  4  5  1  0  0  0  0
  4  6  1  0  0  0  0
  4  7  1  0  0  0  0
  7  8  1  0  0  0  0
  7  9  1  0  0  0  0
  7 10  1  0  0  0  0
 10 11  1  0  0  0  0
 10 12  1  0  0  0  0
 10 13  1  0  0  0  0
 13 14  1  0  0  0  0
 13 15  1  0  0  0  0
 13 16  1  0  0  0  0
 16 17  1  0  0  0  0
 16 18  1  0  0  0  0
 16 19  1  0  0  0  0
 19 20  1  0  0  0  0
 19 21  1  0  0  0  0
 19 22  1  0  0  0  0
M  END
> <VConfSearch Rank>
959

> <Conf_Id>
94

> <Delta U+W>
3.471

> <U+W>
-49.688

> <U>
11.773

> <W>
-61.461

> <W(PB)>
-63.710

> <W(SA)>
2.248

> <Valence>
10.419

> <Coulomb>
0.566

> <VdW>
0.789

> <VdW6>
-8.847

> <VdW12>
9.636

> <Bond>
0.200

> <Angle>
3.187

> <Pdih>
7.032

> <Idih>
0.001

> <Tether>
0.000

$$$$
VeraChem MOL file


 22 21  0  0  0  0  0  0  0  0999 V2000     
   19.6524   21.6839   24.4281 C   0  0  0  0  0  0  0  0  0  0  0  0
   19.4661   22.8686   24.2323 O   0  5  0  0  0  0  0  0  0  0  0  0
   20.3015   21.2500   25.3593 O   0  0  0  0  0  0  0  0  0  0  0  0
   19.0549   20.6884   23.4402 C   0  0  0  0  0  0  0  0  0  0  0  0
   18.1149   21.1065   23.0611 H   0  0  0  0  0  0  0  0  0  0  0  0
   18.8059   19.7765   23.9947 H   0  0  0  0  0  0  0  0  0  0  0  0
   20.0101   20.3651   22.2623 C   0  0  0  0  0  0  0  0  0  0  0  0
   20.3056   21.3064   21.7788 H   0  0  0  0  0  0  0  0  0  0  0  0
   20.9356   19.9199   22.6511 H   0  0  0  0  0  0  0  0  0  0  0  0
   19.3810   19.4369   21.1931 C   0  0  0  0  0  0  0  0  0  0  0  0
   20.0990   19.3016   20.3736 H   0  0  0  0  0  0  0  0  0  0  0  0
   18.5148   19.9452   20.7481 H   0  0  0  0  0  0  0  0  0  0  0  0
   18.9266   18.0466   21.7104 C   0  0  0  0  0  0  0  0  0  0  0  0
   18.0925   18.1747   22.4126 H   0  0  0  0  0  0  0  0  0  0  0  0
   18.5177   17.4756   20.8658 H   0  0  0  0  0  0  0  0  0  0  0  0
   20.0320   17.2039   22.3929 C   0  0  0  0  0  0  0  0  0  0  0  0
   19.5894   16.2598   22.7389 H   0  0  0  0  0  0  0  0  0  0  0  0
   20.3966   17.7163   23.2932 H   0  0  0  0  0  0  0  0  0  0  0  0
   21.2188   16.8834   21.4588 C   0  0  0  0  0  0  0  0  0  0  0  0
   20.8746   16.3847   20.5435 H   0  0  0  0  0  0  0  0  0  0  0  0
   21.9330   16.2172   21.9595 H   0  0  0  0  0  0  0  0  0  0  0  0
   21.7581   17.7951   21.1726 H   0  0  0  0  0  0  0  0  0  0  0  0
  1  2  1  0  0  0  0
  1  3  2  0  0  0  0
  1  4  1  0  0  0  0
  4  5  1  0  0  0  0
  4  6  1  0  0  0  0
  4  7  1  0  0  0  0
  7  8  1  0  0  0  0
  7  9  1  0  0  0  0
  7 10  1  0  0  0  0
 10 11  1  0  0  0  0
 10 12  1  0  0  0  0
 10 13  1  0  0  0  0
 13 14  1  0  0  0  0
 13 15  1  0  0  0  0
 13 16  1  0  0  0  0
 16 17  1  0  0  0  0
 16 18  1  0  0  0  0
 16 19  1  0  0  0  0
 19 20  1  0  0  0  0
 19 21  1  0  0  0  0
 19 22  1  0  0  0  0
M  END
> <VConfSearch Rank>
960

> <Conf_Id>
56

> <Delta U+W>
0.853

> <U+W>
-52.307

> <U>
8.874

> <W>
-61.181

> <W(PB)>
-63.413

> <W(SA)>
2.232

> <Valence>
8.479

> <Coulomb>
-0.357

> <VdW>
0.753

> <VdW6>
-9.081

> <VdW12>
9.833

> <Bond>
0.221

> <Angle>
3.208

> <Pdih>
5.050

> <Idih>
0.000

> <Tether>
0.000

$$$$
VeraChem MOL file


 22 21  0  0  0  0  0  0  0  0999 V2000     
   17.1584   18.5718   25.1862 C   0  0  0  0  0  0  0  0  0  0  0  0
   17.3284   17.3710   25.2730 O   0  5  0  0  0  0  0  0  0  0  0  0
   16.3876   19.1858   25.8968 O   0  0  0  0  0  0  0  0  0  0  0  0
   17.9368   19.3752   24.1431 C   0  0  0  0  0  0  0  0  0  0  0  0
   18.4936   20.1533   24.6783 H   0  0  0  0  0  0  0  0  0  0  0  0
   17.2026   19.8850   23.5083 H   0  0  0  0  0  0  0  0  0  0  0  0
   18.9089   18.5482   23.2601 C   0  0  0  0  0  0  0  0  0  0  0  0
   19.6379   18.0351   23.9026 H   0  0  0  0  0  0  0  0  0  0  0  0
   18.3457   17.7667   22.7314 H   0  0  0  0  0  0  0  0  0  0  0  0
   19.6515   19.4354   22.2374 C   0  0  0  0  0  0  0  0  0  0  0  0
   20.2138   20.2159   22.7683 H   0  0  0  0  0  0  0  0  0  0  0  0
   18.9207   19.9473   21.5964 H   0  0  0  0  0  0  0  0  0  0  0  0
   20.6178   18.6108   21.3601 C   0  0  0  0  0  0  0  0  0  0  0  0
   21.3488   18.0986   22.0007 H   0  0  0  0  0  0  0  0  0  0  0  0
   20.0559   17.8302   20.8289 H   0  0  0  0  0  0  0  0  0  0  0  0
   21.3603   19.4968   20.3379 C   0  0  0  0  0  0  0  0  0  0  0  0
   21.9252   20.2777   20.8657 H   0  0  0  0  0  0  0  0  0  0  0  0
   20.6322   20.0093   19.6939 H   0  0  0  0  0  0  0  0  0  0  0  0
   22.3241   18.6696   19.4637 C   0  0  0  0  0  0  0  0  0  0  0  0
   23.0833   18.1706   20.0802 H   0  0  0  0  0  0  0  0  0  0  0  0
   22.8433   19.3148   18.7432 H   0  0  0  0  0  0  0  0  0  0  0  0
   21.7806   17.9003   18.8997 H   0  0  0  0  0  0  0  0  0  0  0  0
  1  2  1  0  0  0  0
  1  3  2  0  0  0  0
  1  4  1  0  0  0  0
  4  5  1  0  0  0  0
  4  6  1  0  0  0  0
  4  7  1  0  0  0  0
  7  8  1  0  0  0  0
  7  9  1  0  0  0  0
  7 10  1  0  0  0  0
 10 11  1  0  0  0  0
 10 12  1  0  0  0  0
 10 13  1  0  0  0  0
 13 14  1  0  0  0  0
 13 15  1  0  0  0  0
 13 16  1  0  0  0  0
 16 17  1  0  0  0  0
 16 18  1  0  0  0  0
 16 19  1  0  0  0  0
 19 20  1  0  0  0  0
 19 21  1  0  0  0  0
 19 22  1  0  0  0  0
M  END
> <VConfSearch Rank>
961

> <Conf_Id>
0

> <Delta U+W>
0.000

> <U+W>
-53.159

> <U>
6.763

> <W>
-59.922

> <W(PB)>
-62.256

> <W(SA)>
2.334

> <Valence>
7.600

> <Coulomb>
-2.139

> <VdW>
1.302

> <VdW6>
-6.786

> <VdW12>
8.088

> <Bond>
0.134

> <Angle>
2.720

> <Pdih>
4.746

> <Idih>
0.000

> <Tether>
0.000

$$$$
VeraChem MOL file


 22 21  0  0  0  0  0  0  0  0999 V2000     
   15.8124   19.0759   21.6314 C   0  0  0  0  0  0  0  0  0  0  0  0
   15.4667   19.3185   20.4921 O   0  5  0  0  0  0  0  0  0  0  0  0
   15.1841   19.4197   22.6130 O   0  0  0  0  0  0  0  0  0  0  0  0
   17.1181   18.3176   21.8416 C   0  0  0  0  0  0  0  0  0  0  0  0
   17.2498   17.6263   21.0005 H   0  0  0  0  0  0  0  0  0  0  0  0
   17.0168   17.7094   22.7484 H   0  0  0  0  0  0  0  0  0  0  0  0
   18.3455   19.2544   21.9607 C   0  0  0  0  0  0  0  0  0  0  0  0
   18.4252   19.8654   21.0508 H   0  0  0  0  0  0  0  0  0  0  0  0
   18.1922   19.9485   22.7987 H   0  0  0  0  0  0  0  0  0  0  0  0
   19.6542   18.4631   22.1728 C   0  0  0  0  0  0  0  0  0  0  0  0
   19.8037   17.7693   21.3340 H   0  0  0  0  0  0  0  0  0  0  0  0
   19.5706   17.8524   23.0823 H   0  0  0  0  0  0  0  0  0  0  0  0
   20.8758   19.3995   22.2912 C   0  0  0  0  0  0  0  0  0  0  0  0
   20.9597   20.0103   21.3818 H   0  0  0  0  0  0  0  0  0  0  0  0
   20.7266   20.0934   23.1298 H   0  0  0  0  0  0  0  0  0  0  0  0
   22.1842   18.6093   22.5032 C   0  0  0  0  0  0  0  0  0  0  0  0
   22.3379   17.9154   21.6652 H   0  0  0  0  0  0  0  0  0  0  0  0
   22.1048   17.9985   23.4132 H   0  0  0  0  0  0  0  0  0  0  0  0
   23.4017   19.5480   22.6209 C   0  0  0  0  0  0  0  0  0  0  0  0
   23.2889   20.2328   23.4716 H   0  0  0  0  0  0  0  0  0  0  0  0
   23.5236   20.1493   21.7105 H   0  0  0  0  0  0  0  0  0  0  0  0
   24.3228   18.9699   22.7711 H   0  0  0  0  0  0  0  0  0  0  0  0
  1  2  1  0  0  0  0
  1  3  2  0  0  0  0
  1  4  1  0  0  0  0
  4  5  1  0  0  0  0
  4  6  1  0  0  0  0
  4  7  1  0  0  0  0
  7  8  1  0  0  0  0
  7  9  1  0  0  0  0
  7 10  1  0  0  0  0
 10 11  1  0  0  0  0
 10 12  1  0  0  0  0
 10 13  1  0  0  0  0
 13 14  1  0  0  0  0
 13 15  1  0  0  0  0
 13 16  1  0  0  0  0
 16 17  1  0  0  0  0
 16 18  1  0  0  0  0
 16 19  1  0  0  0  0
 19 20  1  0  0  0  0
 19 21  1  0  0  0  0
 19 22  1  0  0  0  0
M  END
> <VConfSearch Rank>
962

> <Conf_Id>
10

> <Delta U+W>
-1.291

> <U+W>
-54.451

> <U>
5.779

> <W>
-60.230

> <W(PB)>
-62.557

> <W(SA)>
2.328

> <Valence>
7.101

> <Coulomb>
-2.079

> <VdW>
0.757

> <VdW6>
-6.496

> <VdW12>
7.253

> <Bond>
0.100

> <Angle>
2.262

> <Pdih>
4.738

> <Idih>
0.001

> <Tether>
0.000

$$$$
VeraChem MOL file


 22 21  0  0  0  0  0  0  0  0999 V2000     
   23.6408   19.5024   23.0429 C   0  0  0  0  0  0  0  0  0  0  0  0
   24.3825   19.0123   22.2146 O   0  5  0  0  0  0  0  0  0  0  0  0
   23.9387   20.4585   23.7312 O   0  0  0  0  0  0  0  0  0  0  0  0
   22.2518   18.8975   23.2133 C   0  0  0  0  0  0  0  0  0  0  0  0
   21.9564   19.0127   24.2631 H   0  0  0  0  0  0  0  0  0  0  0  0
   22.3217   17.8217   23.0124 H   0  0  0  0  0  0  0  0  0  0  0  0
   21.1948   19.5468   22.2864 C   0  0  0  0  0  0  0  0  0  0  0  0
   21.1468   20.6254   22.4909 H   0  0  0  0  0  0  0  0  0  0  0  0
   21.5112   19.4340   21.2401 H   0  0  0  0  0  0  0  0  0  0  0  0
   19.7979   18.9171   22.4779 C   0  0  0  0  0  0  0  0  0  0  0  0
   19.4833   19.0332   23.5241 H   0  0  0  0  0  0  0  0  0  0  0  0
   19.8587   17.8394   22.2783 H   0  0  0  0  0  0  0  0  0  0  0  0
   18.7472   19.5661   21.5478 C   0  0  0  0  0  0  0  0  0  0  0  0
   18.7489   20.6527   21.7099 H   0  0  0  0  0  0  0  0  0  0  0  0
   19.0329   19.4076   20.4989 H   0  0  0  0  0  0  0  0  0  0  0  0
   17.3122   19.0379   21.7783 C   0  0  0  0  0  0  0  0  0  0  0  0
   16.6166   19.6292   21.1671 H   0  0  0  0  0  0  0  0  0  0  0  0
   17.0205   19.2005   22.8251 H   0  0  0  0  0  0  0  0  0  0  0  0
   17.1449   17.5457   21.4183 C   0  0  0  0  0  0  0  0  0  0  0  0
   16.0940   17.2434   21.5138 H   0  0  0  0  0  0  0  0  0  0  0  0
   17.7364   16.9042   22.0833 H   0  0  0  0  0  0  0  0  0  0  0  0
   17.4592   17.3534   20.3842 H   0  0  0  0  0  0  0  0  0  0  0  0
  1  2  1  0  0  0  0
  1  3  2  0  0  0  0
  1  4  1  0  0  0  0
  4  5  1  0  0  0  0
  4  6  1  0  0  0  0
  4  7  1  0  0  0  0
  7  8  1  0  0  0  0
  7  9  1  0  0  0  0
  7 10  1  0  0  0  0
 10 11  1  0  0  0  0
 10 12  1  0  0  0  0
 10 13  1  0  0  0  0
 13 14  1  0  0  0  0
 13 15  1  0  0  0  0
 13 16  1  0  0  0  0
 16 17  1  0  0  0  0
 16 18  1  0  0  0  0
 16 19  1  0  0  0  0
 19 20  1  0  0  0  0
 19 21  1  0  0  0  0
 19 22  1  0  0  0  0
M  END
> <VConfSearch Rank>
963

> <Conf_Id>
37

> <Delta U+W>
-0.345

> <U+W>
-53.504

> <U>
6.751

> <W>
-60.255

> <W(PB)>
-62.592

> <W(SA)>
2.336

> <Valence>
7.602

> <Coulomb>
-1.744

> <VdW>
0.894

> <VdW6>
-7.110

> <VdW12>
8.004

> <Bond>
0.131

> <Angle>
2.489

> <Pdih>
4.982

> <Idih>
0.001

> <Tether>
0.000

$$$$
VeraChem MOL file


 22 21  0  0  0  0  0  0  0  0999 V2000     
   23.3100   17.5435   21.3927 C   0  0  0  0  0  0  0  0  0  0  0  0
   23.2813   16.7294   20.4910 O   0  5  0  0  0  0  0  0  0  0  0  0
   24.1504   17.5464   22.2703 O   0  0  0  0  0  0  0  0  0  0  0  0
   22.2185   18.6069   21.4375 C   0  0  0  0  0  0  0  0  0  0  0  0
   21.9312   18.8439   20.4060 H   0  0  0  0  0  0  0  0  0  0  0  0
   22.6478   19.5177   21.8719 H   0  0  0  0  0  0  0  0  0  0  0  0
   20.9772   18.1614   22.2491 C   0  0  0  0  0  0  0  0  0  0  0  0
   20.5666   17.2419   21.8092 H   0  0  0  0  0  0  0  0  0  0  0  0
   21.2842   17.9149   23.2750 H   0  0  0  0  0  0  0  0  0  0  0  0
   19.8874   19.2549   22.2794 C   0  0  0  0  0  0  0  0  0  0  0  0
   19.5935   19.4986   21.2502 H   0  0  0  0  0  0  0  0  0  0  0  0
   20.2999   20.1721   22.7217 H   0  0  0  0  0  0  0  0  0  0  0  0
   18.6489   18.8039   23.0875 C   0  0  0  0  0  0  0  0  0  0  0  0
   18.2037   17.9160   22.6181 H   0  0  0  0  0  0  0  0  0  0  0  0
   18.9701   18.4966   24.0922 H   0  0  0  0  0  0  0  0  0  0  0  0
   17.5740   19.9063   23.2317 C   0  0  0  0  0  0  0  0  0  0  0  0
   18.0141   20.7939   23.7069 H   0  0  0  0  0  0  0  0  0  0  0  0
   16.7898   19.5469   23.9122 H   0  0  0  0  0  0  0  0  0  0  0  0
   16.9229   20.3046   21.8895 C   0  0  0  0  0  0  0  0  0  0  0  0
   16.5020   19.4273   21.3813 H   0  0  0  0  0  0  0  0  0  0  0  0
   17.6491   20.7774   21.2165 H   0  0  0  0  0  0  0  0  0  0  0  0
   16.1087   21.0218   22.0559 H   0  0  0  0  0  0  0  0  0  0  0  0
  1  2  1  0  0  0  0
  1  3  2  0  0  0  0
  1  4  1  0  0  0  0
  4  5  1  0  0  0  0
  4  6  1  0  0  0  0
  4  7  1  0  0  0  0
  7  8  1  0  0  0  0
  7  9  1  0  0  0  0
  7 10  1  0  0  0  0
 10 11  1  0  0  0  0
 10 12  1  0  0  0  0
 10 13  1  0  0  0  0
 13 14  1  0  0  0  0
 13 15  1  0  0  0  0
 13 16  1  0  0  0  0
 16 17  1  0  0  0  0
 16 18  1  0  0  0  0
 16 19  1  0  0  0  0
 19 20  1  0  0  0  0
 19 21  1  0  0  0  0
 19 22  1  0  0  0  0
M  END
> <VConfSearch Rank>
964

> <Conf_Id>
38

> <Delta U+W>
-0.439

> <U+W>
-53.598

> <U>
6.751

> <W>
-60.350

> <W(PB)>
-62.659

> <W(SA)>
2.309

> <Valence>
7.602

> <Coulomb>
-1.744

> <VdW>
0.893

> <VdW6>
-7.110

> <VdW12>
8.004

> <Bond>
0.131

> <Angle>
2.489

> <Pdih>
4.981

> <Idih>
0.001

> <Tether>
0.000

$$$$
VeraChem MOL file


 22 21  0  0  0  0  0  0  0  0999 V2000     
   22.6357   21.4346   23.0659 C   0  0  0  0  0  0  0  0  0  0  0  0
   23.7893   21.2863   22.7138 O   0  5  0  0  0  0  0  0  0  0  0  0
   22.3018   22.1421   23.9957 O   0  0  0  0  0  0  0  0  0  0  0  0
   21.5499   20.6731   22.3140 C   0  0  0  0  0  0  0  0  0  0  0  0
   21.8689   20.5685   21.2701 H   0  0  0  0  0  0  0  0  0  0  0  0
   20.6462   21.2925   22.3178 H   0  0  0  0  0  0  0  0  0  0  0  0
   21.2614   19.2782   22.9276 C   0  0  0  0  0  0  0  0  0  0  0  0
   22.2072   18.7231   22.9973 H   0  0  0  0  0  0  0  0  0  0  0  0
   20.8961   19.3978   23.9569 H   0  0  0  0  0  0  0  0  0  0  0  0
   20.2536   18.4361   22.1092 C   0  0  0  0  0  0  0  0  0  0  0  0
   20.2262   17.4270   22.5397 H   0  0  0  0  0  0  0  0  0  0  0  0
   20.6177   18.3256   21.0787 H   0  0  0  0  0  0  0  0  0  0  0  0
   18.8231   19.0290   22.0975 C   0  0  0  0  0  0  0  0  0  0  0  0
   18.4598   19.1410   23.1281 H   0  0  0  0  0  0  0  0  0  0  0  0
   18.8485   20.0369   21.6644 H   0  0  0  0  0  0  0  0  0  0  0  0
   17.8151   18.1846   21.2830 C   0  0  0  0  0  0  0  0  0  0  0  0
   18.1806   18.0604   20.2543 H   0  0  0  0  0  0  0  0  0  0  0  0
   16.8695   18.7395   21.2110 H   0  0  0  0  0  0  0  0  0  0  0  0
   17.5298   16.8002   21.9047 C   0  0  0  0  0  0  0  0  0  0  0  0
   18.4208   16.1604   21.8872 H   0  0  0  0  0  0  0  0  0  0  0  0
   16.7401   16.2836   21.3440 H   0  0  0  0  0  0  0  0  0  0  0  0
   17.1958   16.8982   22.9458 H   0  0  0  0  0  0  0  0  0  0  0  0
  1  2  1  0  0  0  0
  1  3  2  0  0  0  0
  1  4  1  0  0  0  0
  4  5  1  0  0  0  0
  4  6  1  0  0  0  0
  4  7  1  0  0  0  0
  7  8  1  0  0  0  0
  7  9  1  0  0  0  0
  7 10  1  0  0  0  0
 10 11  1  0  0  0  0
 10 12  1  0  0  0  0
 10 13  1  0  0  0  0
 13 14  1  0  0  0  0
 13 15  1  0  0  0  0
 13 16  1  0  0  0  0
 16 17  1  0  0  0  0
 16 18  1  0  0  0  0
 16 19  1  0  0  0  0
 19 20  1  0  0  0  0
 19 21  1  0  0  0  0
 19 22  1  0  0  0  0
M  END
> <VConfSearch Rank>
965

> <Conf_Id>
60

> <Delta U+W>
0.386

> <U+W>
-52.773

> <U>
7.689

> <W>
-60.463

> <W(PB)>
-62.772

> <W(SA)>
2.309

> <Valence>
8.197

> <Coulomb>
-1.561

> <VdW>
1.053

> <VdW6>
-7.737

> <VdW12>
8.790

> <Bond>
0.181

> <Angle>
2.780

> <Pdih>
5.235

> <Idih>
0.001

> <Tether>
0.000

$$$$
VeraChem MOL file


 22 21  0  0  0  0  0  0  0  0999 V2000     
   21.6525   15.6360   21.9724 C   0  0  0  0  0  0  0  0  0  0  0  0
   21.7227   15.1133   23.0671 O   0  5  0  0  0  0  0  0  0  0  0  0
   22.3581   15.3265   21.0328 O   0  0  0  0  0  0  0  0  0  0  0  0
   20.6390   16.7572   21.7731 C   0  0  0  0  0  0  0  0  0  0  0  0
   19.7697   16.5353   22.4021 H   0  0  0  0  0  0  0  0  0  0  0  0
   20.3020   16.7295   20.7300 H   0  0  0  0  0  0  0  0  0  0  0  0
   21.2180   18.1558   22.1113 C   0  0  0  0  0  0  0  0  0  0  0  0
   21.5069   18.1877   23.1709 H   0  0  0  0  0  0  0  0  0  0  0  0
   22.1414   18.3022   21.5340 H   0  0  0  0  0  0  0  0  0  0  0  0
   20.2495   19.3213   21.7977 C   0  0  0  0  0  0  0  0  0  0  0  0
   19.9563   19.2816   20.7398 H   0  0  0  0  0  0  0  0  0  0  0  0
   20.7963   20.2629   21.9342 H   0  0  0  0  0  0  0  0  0  0  0  0
   18.9845   19.3274   22.6909 C   0  0  0  0  0  0  0  0  0  0  0  0
   18.4350   18.3876   22.5531 H   0  0  0  0  0  0  0  0  0  0  0  0
   19.2778   19.3652   23.7488 H   0  0  0  0  0  0  0  0  0  0  0  0
   18.0190   20.4951   22.3802 C   0  0  0  0  0  0  0  0  0  0  0  0
   17.0943   20.3486   22.9552 H   0  0  0  0  0  0  0  0  0  0  0  0
   17.7322   20.4676   21.3199 H   0  0  0  0  0  0  0  0  0  0  0  0
   18.6018   21.8827   22.7260 C   0  0  0  0  0  0  0  0  0  0  0  0
   18.9276   21.9221   23.7736 H   0  0  0  0  0  0  0  0  0  0  0  0
   17.8450   22.6639   22.5781 H   0  0  0  0  0  0  0  0  0  0  0  0
   19.4600   22.1283   22.0884 H   0  0  0  0  0  0  0  0  0  0  0  0
  1  2  1  0  0  0  0
  1  3  2  0  0  0  0
  1  4  1  0  0  0  0
  4  5  1  0  0  0  0
  4  6  1  0  0  0  0
  4  7  1  0  0  0  0
  7  8  1  0  0  0  0
  7  9  1  0  0  0  0
  7 10  1  0  0  0  0
 10 11  1  0  0  0  0
 10 12  1  0  0  0  0
 10 13  1  0  0  0  0
 13 14  1  0  0  0  0
 13 15  1  0  0  0  0
 13 16  1  0  0  0  0
 16 17  1  0  0  0  0
 16 18  1  0  0  0  0
 16 19  1  0  0  0  0
 19 20  1  0  0  0  0
 19 21  1  0  0  0  0
 19 22  1  0  0  0  0
M  END
> <VConfSearch Rank>
966

> <Conf_Id>
28

> <Delta U+W>
0.351

> <U+W>
-52.808

> <U>
7.689

> <W>
-60.498

> <W(PB)>
-62.768

> <W(SA)>
2.270

> <Valence>
8.197

> <Coulomb>
-1.561

> <VdW>
1.053

> <VdW6>
-7.737

> <VdW12>
8.791

> <Bond>
0.181

> <Angle>
2.780

> <Pdih>
5.235

> <Idih>
0.001

> <Tether>
0.000

$$$$
VeraChem MOL file


 22 21  0  0  0  0  0  0  0  0999 V2000     
   21.2405   20.8382   19.3660 C   0  0  0  0  0  0  0  0  0  0  0  0
   22.2867   21.4323   19.5360 O   0  5  0  0  0  0  0  0  0  0  0  0
   20.9757   20.2172   18.3557 O   0  0  0  0  0  0  0  0  0  0  0  0
   20.2112   20.8564   20.4905 C   0  0  0  0  0  0  0  0  0  0  0  0
   19.2126   20.8152   20.0392 H   0  0  0  0  0  0  0  0  0  0  0  0
   20.2926   21.8182   21.0110 H   0  0  0  0  0  0  0  0  0  0  0  0
   20.3933   19.6889   21.4916 C   0  0  0  0  0  0  0  0  0  0  0  0
   20.3280   18.7393   20.9444 H   0  0  0  0  0  0  0  0  0  0  0  0
   21.4005   19.7390   21.9278 H   0  0  0  0  0  0  0  0  0  0  0  0
   19.3344   19.7290   22.6177 C   0  0  0  0  0  0  0  0  0  0  0  0
   18.3296   19.6258   22.1857 H   0  0  0  0  0  0  0  0  0  0  0  0
   19.3651   20.7149   23.1015 H   0  0  0  0  0  0  0  0  0  0  0  0
   19.5459   18.6452   23.7013 C   0  0  0  0  0  0  0  0  0  0  0  0
   20.5491   18.7506   24.1365 H   0  0  0  0  0  0  0  0  0  0  0  0
   18.8330   18.8256   24.5176 H   0  0  0  0  0  0  0  0  0  0  0  0
   19.3539   17.2040   23.1776 C   0  0  0  0  0  0  0  0  0  0  0  0
   20.1085   16.9751   22.4137 H   0  0  0  0  0  0  0  0  0  0  0  0
   18.3709   17.1127   22.6953 H   0  0  0  0  0  0  0  0  0  0  0  0
   19.4637   16.1696   24.3159 C   0  0  0  0  0  0  0  0  0  0  0  0
   18.6967   16.3447   25.0818 H   0  0  0  0  0  0  0  0  0  0  0  0
   20.4484   16.2204   24.7987 H   0  0  0  0  0  0  0  0  0  0  0  0
   19.3285   15.1517   23.9278 H   0  0  0  0  0  0  0  0  0  0  0  0
  1  2  1  0  0  0  0
  1  3  2  0  0  0  0
  1  4  1  0  0  0  0
  4  5  1  0  0  0  0
  4  6  1  0  0  0  0
  4  7  1  0  0  0  0
  7  8  1  0  0  0  0
  7  9  1  0  0  0  0
  7 10  1  0  0  0  0
 10 11  1  0  0  0  0
 10 12  1  0  0  0  0
 10 13  1  0  0  0  0
 13 14  1  0  0  0  0
 13 15  1  0  0  0  0
 13 16  1  0  0  0  0
 16 17  1  0  0  0  0
 16 18  1  0  0  0  0
 16 19  1  0  0  0  0
 19 20  1  0  0  0  0
 19 21  1  0  0  0  0
 19 22  1  0  0  0  0
M  END
> <VConfSearch Rank>
967

> <Conf_Id>
50

> <Delta U+W>
-0.486

> <U+W>
-53.646

> <U>
7.026

> <W>
-60.672

> <W(PB)>
-62.964

> <W(SA)>
2.292

> <Valence>
7.637

> <Coulomb>
-1.488

> <VdW>
0.877

> <VdW6>
-7.165

> <VdW12>
8.043

> <Bond>
0.134

> <Angle>
2.513

> <Pdih>
4.990

> <Idih>
0.001

> <Tether>
0.000

$$$$
VeraChem MOL file


 22 21  0  0  0  0  0  0  0  0999 V2000     
   17.9118   20.9899   19.6666 C   0  0  0  0  0  0  0  0  0  0  0  0
   18.3558   22.0884   19.3970 O   0  5  0  0  0  0  0  0  0  0  0  0
   16.7266   20.7566   19.7978 O   0  0  0  0  0  0  0  0  0  0  0  0
   18.8979   19.8454   19.8717 C   0  0  0  0  0  0  0  0  0  0  0  0
   19.7575   20.0143   19.2119 H   0  0  0  0  0  0  0  0  0  0  0  0
   18.4152   18.9168   19.5442 H   0  0  0  0  0  0  0  0  0  0  0  0
   19.3688   19.7130   21.3410 C   0  0  0  0  0  0  0  0  0  0  0  0
   19.8416   20.6533   21.6565 H   0  0  0  0  0  0  0  0  0  0  0  0
   18.4904   19.5649   21.9828 H   0  0  0  0  0  0  0  0  0  0  0  0
   20.3636   18.5429   21.5209 C   0  0  0  0  0  0  0  0  0  0  0  0
   21.1962   18.6707   20.8157 H   0  0  0  0  0  0  0  0  0  0  0  0
   19.8741   17.5958   21.2555 H   0  0  0  0  0  0  0  0  0  0  0  0
   20.9445   18.4422   22.9513 C   0  0  0  0  0  0  0  0  0  0  0  0
   21.7279   17.6719   22.9553 H   0  0  0  0  0  0  0  0  0  0  0  0
   21.4376   19.3877   23.2156 H   0  0  0  0  0  0  0  0  0  0  0  0
   19.8882   18.0883   24.0223 C   0  0  0  0  0  0  0  0  0  0  0  0
   19.3583   17.1709   23.7314 H   0  0  0  0  0  0  0  0  0  0  0  0
   19.1361   18.8853   24.0901 H   0  0  0  0  0  0  0  0  0  0  0  0
   20.5335   17.8892   25.4086 C   0  0  0  0  0  0  0  0  0  0  0  0
   21.0479   18.8019   25.7367 H   0  0  0  0  0  0  0  0  0  0  0  0
   21.2657   17.0713   25.3878 H   0  0  0  0  0  0  0  0  0  0  0  0
   19.7707   17.6418   26.1583 H   0  0  0  0  0  0  0  0  0  0  0  0
  1  2  1  0  0  0  0
  1  3  2  0  0  0  0
  1  4  1  0  0  0  0
  4  5  1  0  0  0  0
  4  6  1  0  0  0  0
  4  7  1  0  0  0  0
  7  8  1  0  0  0  0
  7  9  1  0  0  0  0
  7 10  1  0  0  0  0
 10 11  1  0  0  0  0
 10 12  1  0  0  0  0
 10 13  1  0  0  0  0
 13 14  1  0  0  0  0
 13 15  1  0  0  0  0
 13 16  1  0  0  0  0
 16 17  1  0  0  0  0
 16 18  1  0  0  0  0
 16 19  1  0  0  0  0
 19 20  1  0  0  0  0
 19 21  1  0  0  0  0
 19 22  1  0  0  0  0
M  END
> <VConfSearch Rank>
968

> <Conf_Id>
51

> <Delta U+W>
-0.517

> <U+W>
-53.677

> <U>
7.026

> <W>
-60.703

> <W(PB)>
-63.007

> <W(SA)>
2.304

> <Valence>
7.638

> <Coulomb>
-1.488

> <VdW>
0.877

> <VdW6>
-7.165

> <VdW12>
8.042

> <Bond>
0.134

> <Angle>
2.513

> <Pdih>
4.990

> <Idih>
0.001

> <Tether>
0.000

$$$$
VeraChem MOL file


 22 21  0  0  0  0  0  0  0  0999 V2000     
   18.8134   18.8287   25.6240 C   0  0  0  0  0  0  0  0  0  0  0  0
   18.1124   17.8669   25.8699 O   0  5  0  0  0  0  0  0  0  0  0  0
   19.8641   19.0572   26.1902 O   0  0  0  0  0  0  0  0  0  0  0  0
   18.3367   19.8122   24.5588 C   0  0  0  0  0  0  0  0  0  0  0  0
   18.8688   20.7615   24.6954 H   0  0  0  0  0  0  0  0  0  0  0  0
   17.2757   20.0129   24.7491 H   0  0  0  0  0  0  0  0  0  0  0  0
   18.5148   19.3028   23.1050 C   0  0  0  0  0  0  0  0  0  0  0  0
   18.0004   18.3383   22.9917 H   0  0  0  0  0  0  0  0  0  0  0  0
   18.0238   20.0056   22.4183 H   0  0  0  0  0  0  0  0  0  0  0  0
   20.0000   19.1539   22.7053 C   0  0  0  0  0  0  0  0  0  0  0  0
   20.4943   18.4388   23.3774 H   0  0  0  0  0  0  0  0  0  0  0  0
   20.5127   20.1172   22.8328 H   0  0  0  0  0  0  0  0  0  0  0  0
   20.1541   18.6762   21.2453 C   0  0  0  0  0  0  0  0  0  0  0  0
   19.6412   17.7128   21.1186 H   0  0  0  0  0  0  0  0  0  0  0  0
   19.6630   19.3911   20.5709 H   0  0  0  0  0  0  0  0  0  0  0  0
   21.6369   18.5265   20.8457 C   0  0  0  0  0  0  0  0  0  0  0  0
   22.1310   17.8106   21.5171 H   0  0  0  0  0  0  0  0  0  0  0  0
   22.1529   19.4887   20.9696 H   0  0  0  0  0  0  0  0  0  0  0  0
   21.7868   18.0487   19.3874 C   0  0  0  0  0  0  0  0  0  0  0  0
   21.3063   17.0722   19.2427 H   0  0  0  0  0  0  0  0  0  0  0  0
   22.8468   17.9477   19.1204 H   0  0  0  0  0  0  0  0  0  0  0  0
   21.3284   18.7630   18.6910 H   0  0  0  0  0  0  0  0  0  0  0  0
  1  2  1  0  0  0  0
  1  3  2  0  0  0  0
  1  4  1  0  0  0  0
  4  5  1  0  0  0  0
  4  6  1  0  0  0  0
  4  7  1  0  0  0  0
  7  8  1  0  0  0  0
  7  9  1  0  0  0  0
  7 10  1  0  0  0  0
 10 11  1  0  0  0  0
 10 12  1  0  0  0  0
 10 13  1  0  0  0  0
 13 14  1  0  0  0  0
 13 15  1  0  0  0  0
 13 16  1  0  0  0  0
 16 17  1  0  0  0  0
 16 18  1  0  0  0  0
 16 19  1  0  0  0  0
 19 20  1  0  0  0  0
 19 21  1  0  0  0  0
 19 22  1  0  0  0  0
M  END
> <VConfSearch Rank>
969

> <Conf_Id>
43

> <Delta U+W>
-0.129

> <U+W>
-53.289

> <U>
7.937

> <W>
-61.225

> <W(PB)>
-63.523

> <W(SA)>
2.297

> <Valence>
7.358

> <Coulomb>
-0.022

> <VdW>
0.601

> <VdW6>
-7.363

> <VdW12>
7.964

> <Bond>
0.121

> <Angle>
2.425

> <Pdih>
4.811

> <Idih>
0.000

> <Tether>
0.000

$$$$
VeraChem MOL file


 22 21  0  0  0  0  0  0  0  0999 V2000     
   22.7426   20.7102   22.0393 C   0  0  0  0  0  0  0  0  0  0  0  0
   23.3276   20.8342   23.0973 O   0  5  0  0  0  0  0  0  0  0  0  0
   22.3733   21.6486   21.3612 O   0  0  0  0  0  0  0  0  0  0  0  0
   22.4745   19.2978   21.5272 C   0  0  0  0  0  0  0  0  0  0  0  0
   23.4013   18.7243   21.6466 H   0  0  0  0  0  0  0  0  0  0  0  0
   22.2691   19.3485   20.4510 H   0  0  0  0  0  0  0  0  0  0  0  0
   21.3173   18.5703   22.2596 C   0  0  0  0  0  0  0  0  0  0  0  0
   21.2862   17.5242   21.9261 H   0  0  0  0  0  0  0  0  0  0  0  0
   21.5239   18.5522   23.3388 H   0  0  0  0  0  0  0  0  0  0  0  0
   19.9434   19.2284   22.0008 C   0  0  0  0  0  0  0  0  0  0  0  0
   19.7475   19.2559   20.9201 H   0  0  0  0  0  0  0  0  0  0  0  0
   19.9612   20.2709   22.3477 H   0  0  0  0  0  0  0  0  0  0  0  0
   18.8029   18.4702   22.7133 C   0  0  0  0  0  0  0  0  0  0  0  0
   18.7812   17.4281   22.3659 H   0  0  0  0  0  0  0  0  0  0  0  0
   18.9995   18.4432   23.7939 H   0  0  0  0  0  0  0  0  0  0  0  0
   17.4307   19.1273   22.4559 C   0  0  0  0  0  0  0  0  0  0  0  0
   17.2297   19.1545   21.3759 H   0  0  0  0  0  0  0  0  0  0  0  0
   17.4480   20.1695   22.8038 H   0  0  0  0  0  0  0  0  0  0  0  0
   16.2943   18.3677   23.1695 C   0  0  0  0  0  0  0  0  0  0  0  0
   16.2339   17.3297   22.8170 H   0  0  0  0  0  0  0  0  0  0  0  0
   15.3265   18.8483   22.9758 H   0  0  0  0  0  0  0  0  0  0  0  0
   16.4538   18.3523   24.2556 H   0  0  0  0  0  0  0  0  0  0  0  0
  1  2  1  0  0  0  0
  1  3  2  0  0  0  0
  1  4  1  0  0  0  0
  4  5  1  0  0  0  0
  4  6  1  0  0  0  0
  4  7  1  0  0  0  0
  7  8  1  0  0  0  0
  7  9  1  0  0  0  0
  7 10  1  0  0  0  0
 10 11  1  0  0  0  0
 10 12  1  0  0  0  0
 10 13  1  0  0  0  0
 13 14  1  0  0  0  0
 13 15  1  0  0  0  0
 13 16  1  0  0  0  0
 16 17  1  0  0  0  0
 16 18  1  0  0  0  0
 16 19  1  0  0  0  0
 19 20  1  0  0  0  0
 19 21  1  0  0  0  0
 19 22  1  0  0  0  0
M  END
> <VConfSearch Rank>
970

> <Conf_Id>
44

> <Delta U+W>
-0.155

> <U+W>
-53.314

> <U>
7.937

> <W>
-61.252

> <W(PB)>
-63.556

> <W(SA)>
2.304

> <Valence>
7.358

> <Coulomb>
-0.021

> <VdW>
0.600

> <VdW6>
-7.363

> <VdW12>
7.964

> <Bond>
0.121

> <Angle>
2.425

> <Pdih>
4.811

> <Idih>
0.001

> <Tether>
0.000

$$$$
VeraChem MOL file


 22 21  0  0  0  0  0  0  0  0999 V2000     
   21.2358   15.9809   21.2953 C   0  0  0  0  0  0  0  0  0  0  0  0
   22.1038   16.1654   20.4650 O   0  5  0  0  0  0  0  0  0  0  0  0
   20.3447   15.1647   21.1662 O   0  0  0  0  0  0  0  0  0  0  0  0
   21.2801   16.8069   22.5779 C   0  0  0  0  0  0  0  0  0  0  0  0
   22.3152   16.7943   22.9393 H   0  0  0  0  0  0  0  0  0  0  0  0
   20.6719   16.3045   23.3398 H   0  0  0  0  0  0  0  0  0  0  0  0
   20.8118   18.2750   22.4015 C   0  0  0  0  0  0  0  0  0  0  0  0
   21.0255   18.8215   23.3287 H   0  0  0  0  0  0  0  0  0  0  0  0
   21.4028   18.7525   21.6078 H   0  0  0  0  0  0  0  0  0  0  0  0
   19.3040   18.3813   22.0691 C   0  0  0  0  0  0  0  0  0  0  0  0
   18.7128   17.9410   22.8837 H   0  0  0  0  0  0  0  0  0  0  0  0
   19.0893   17.7827   21.1732 H   0  0  0  0  0  0  0  0  0  0  0  0
   18.8304   19.8312   21.8097 C   0  0  0  0  0  0  0  0  0  0  0  0
   19.4219   20.2712   20.9952 H   0  0  0  0  0  0  0  0  0  0  0  0
   17.7909   19.7989   21.4557 H   0  0  0  0  0  0  0  0  0  0  0  0
   18.9061   20.7388   23.0583 C   0  0  0  0  0  0  0  0  0  0  0  0
   19.9490   20.8508   23.3824 H   0  0  0  0  0  0  0  0  0  0  0  0
   18.3598   20.2720   23.8895 H   0  0  0  0  0  0  0  0  0  0  0  0
   18.3160   22.1356   22.7783 C   0  0  0  0  0  0  0  0  0  0  0  0
   18.8617   22.6369   21.9682 H   0  0  0  0  0  0  0  0  0  0  0  0
   18.3800   22.7688   23.6727 H   0  0  0  0  0  0  0  0  0  0  0  0
   17.2595   22.0653   22.4880 H   0  0  0  0  0  0  0  0  0  0  0  0
  1  2  1  0  0  0  0
  1  3  2  0  0  0  0
  1  4  1  0  0  0  0
  4  5  1  0  0  0  0
  4  6  1  0  0  0  0
  4  7  1  0  0  0  0
  7  8  1  0  0  0  0
  7  9  1  0  0  0  0
  7 10  1  0  0  0  0
 10 11  1  0  0  0  0
 10 12  1  0  0  0  0
 10 13  1  0  0  0  0
 13 14  1  0  0  0  0
 13 15  1  0  0  0  0
 13 16  1  0  0  0  0
 16 17  1  0  0  0  0
 16 18  1  0  0  0  0
 16 19  1  0  0  0  0
 19 20  1  0  0  0  0
 19 21  1  0  0  0  0
 19 22  1  0  0  0  0
M  END
> <VConfSearch Rank>
971

> <Conf_Id>
53

> <Delta U+W>
0.723

> <U+W>
-52.436

> <U>
8.587

> <W>
-61.022

> <W(PB)>
-63.285

> <W(SA)>
2.263

> <Valence>
7.933

> <Coulomb>
-0.124

> <VdW>
0.778

> <VdW6>
-7.981

> <VdW12>
8.759

> <Bond>
0.160

> <Angle>
2.698

> <Pdih>
5.074

> <Idih>
0.001

> <Tether>
0.000

$$$$
VeraChem MOL file


 22 21  0  0  0  0  0  0  0  0999 V2000     
   20.7692   21.4933   24.3170 C   0  0  0  0  0  0  0  0  0  0  0  0
   20.8108   22.5175   23.6645 O   0  5  0  0  0  0  0  0  0  0  0  0
   20.9894   21.4472   25.5112 O   0  0  0  0  0  0  0  0  0  0  0  0
   20.3986   20.1985   23.6029 C   0  0  0  0  0  0  0  0  0  0  0  0
   20.9084   19.3710   24.1105 H   0  0  0  0  0  0  0  0  0  0  0  0
   20.7967   20.2568   22.5836 H   0  0  0  0  0  0  0  0  0  0  0  0
   18.8698   19.9473   23.5704 C   0  0  0  0  0  0  0  0  0  0  0  0
   18.4777   20.0308   24.5934 H   0  0  0  0  0  0  0  0  0  0  0  0
   18.3851   20.7442   22.9895 H   0  0  0  0  0  0  0  0  0  0  0  0
   18.4614   18.5663   22.9989 C   0  0  0  0  0  0  0  0  0  0  0  0
   17.3680   18.4884   23.0726 H   0  0  0  0  0  0  0  0  0  0  0  0
   18.8609   17.7625   23.6325 H   0  0  0  0  0  0  0  0  0  0  0  0
   18.8629   18.3350   21.5201 C   0  0  0  0  0  0  0  0  0  0  0  0
   18.0674   17.7571   21.0299 H   0  0  0  0  0  0  0  0  0  0  0  0
   18.9149   19.2950   20.9885 H   0  0  0  0  0  0  0  0  0  0  0  0
   20.1898   17.5576   21.3595 C   0  0  0  0  0  0  0  0  0  0  0  0
   20.1022   16.5768   21.8469 H   0  0  0  0  0  0  0  0  0  0  0  0
   21.0098   18.0850   21.8612 H   0  0  0  0  0  0  0  0  0  0  0  0
   20.5510   17.3568   19.8741 C   0  0  0  0  0  0  0  0  0  0  0  0
   19.7664   16.7945   19.3511 H   0  0  0  0  0  0  0  0  0  0  0  0
   21.4908   16.7978   19.7766 H   0  0  0  0  0  0  0  0  0  0  0  0
   20.6769   18.3224   19.3671 H   0  0  0  0  0  0  0  0  0  0  0  0
  1  2  1  0  0  0  0
  1  3  2  0  0  0  0
  1  4  1  0  0  0  0
  4  5  1  0  0  0  0
  4  6  1  0  0  0  0
  4  7  1  0  0  0  0
  7  8  1  0  0  0  0
  7  9  1  0  0  0  0
  7 10  1  0  0  0  0
 10 11  1  0  0  0  0
 10 12  1  0  0  0  0
 10 13  1  0  0  0  0
 13 14  1  0  0  0  0
 13 15  1  0  0  0  0
 13 16  1  0  0  0  0
 16 17  1  0  0  0  0
 16 18  1  0  0  0  0
 16 19  1  0  0  0  0
 19 20  1  0  0  0  0
 19 21  1  0  0  0  0
 19 22  1  0  0  0  0
M  END
> <VConfSearch Rank>
972

> <Conf_Id>
5

> <Delta U+W>
2.167

> <U+W>
-50.993

> <U>
10.045

> <W>
-61.037

> <W(PB)>
-63.303

> <W(SA)>
2.266

> <Valence>
10.100

> <Coulomb>
-0.883

> <VdW>
0.828

> <VdW6>
-8.177

> <VdW12>
9.005

> <Bond>
0.182

> <Angle>
2.988

> <Pdih>
6.930

> <Idih>
0.001

> <Tether>
0.000

$$$$
VeraChem MOL file


 22 21  0  0  0  0  0  0  0  0999 V2000     
   21.9008   21.1445   20.9185 C   0  0  0  0  0  0  0  0  0  0  0  0
   22.0302   22.0946   21.6650 O   0  5  0  0  0  0  0  0  0  0  0  0
   22.3836   21.0936   19.8046 O   0  0  0  0  0  0  0  0  0  0  0  0
   21.0678   19.9607   21.3968 C   0  0  0  0  0  0  0  0  0  0  0  0
   21.2110   19.8708   22.4794 H   0  0  0  0  0  0  0  0  0  0  0  0
   21.4693   19.0517   20.9332 H   0  0  0  0  0  0  0  0  0  0  0  0
   19.5621   20.1125   21.0636 C   0  0  0  0  0  0  0  0  0  0  0  0
   19.1593   20.9823   21.6006 H   0  0  0  0  0  0  0  0  0  0  0  0
   19.4596   20.3380   19.9930 H   0  0  0  0  0  0  0  0  0  0  0  0
   18.7071   18.8613   21.3861 C   0  0  0  0  0  0  0  0  0  0  0  0
   19.0408   18.0092   20.7783 H   0  0  0  0  0  0  0  0  0  0  0  0
   17.6781   19.0723   21.0642 H   0  0  0  0  0  0  0  0  0  0  0  0
   18.6730   18.4715   22.8857 C   0  0  0  0  0  0  0  0  0  0  0  0
   18.8259   19.3619   23.5107 H   0  0  0  0  0  0  0  0  0  0  0  0
   17.6678   18.0989   23.1256 H   0  0  0  0  0  0  0  0  0  0  0  0
   19.6941   17.3712   23.2564 C   0  0  0  0  0  0  0  0  0  0  0  0
   20.7131   17.6893   23.0056 H   0  0  0  0  0  0  0  0  0  0  0  0
   19.4922   16.4680   22.6642 H   0  0  0  0  0  0  0  0  0  0  0  0
   19.6280   17.0209   24.7565 C   0  0  0  0  0  0  0  0  0  0  0  0
   19.8578   17.8987   25.3746 H   0  0  0  0  0  0  0  0  0  0  0  0
   20.3530   16.2342   25.0023 H   0  0  0  0  0  0  0  0  0  0  0  0
   18.6288   16.6593   25.0322 H   0  0  0  0  0  0  0  0  0  0  0  0
  1  2  1  0  0  0  0
  1  3  2  0  0  0  0
  1  4  1  0  0  0  0
  4  5  1  0  0  0  0
  4  6  1  0  0  0  0
  4  7  1  0  0  0  0
  7  8  1  0  0  0  0
  7  9  1  0  0  0  0
  7 10  1  0  0  0  0
 10 11  1  0  0  0  0
 10 12  1  0  0  0  0
 10 13  1  0  0  0  0
 13 14  1  0  0  0  0
 13 15  1  0  0  0  0
 13 16  1  0  0  0  0
 16 17  1  0  0  0  0
 16 18  1  0  0  0  0
 16 19  1  0  0  0  0
 19 20  1  0  0  0  0
 19 21  1  0  0  0  0
 19 22  1  0  0  0  0
M  END
> <VConfSearch Rank>
973

> <Conf_Id>
6

> <Delta U+W>
2.118

> <U+W>
-51.042

> <U>
10.045

> <W>
-61.086

> <W(PB)>
-63.356

> <W(SA)>
2.270

> <Valence>
10.100

> <Coulomb>
-0.883

> <VdW>
0.828

> <VdW6>
-8.177

> <VdW12>
9.004

> <Bond>
0.182

> <Angle>
2.988

> <Pdih>
6.930

> <Idih>
0.001

> <Tether>
0.000

$$$$
VeraChem MOL file


 22 21  0  0  0  0  0  0  0  0999 V2000     
   20.1618   20.8163   20.6889 C   0  0  0  0  0  0  0  0  0  0  0  0
   19.0851   21.2102   20.2849 O   0  5  0  0  0  0  0  0  0  0  0  0
   20.9098   20.1191   20.0321 O   0  0  0  0  0  0  0  0  0  0  0  0
   20.6327   21.2787   22.0666 C   0  0  0  0  0  0  0  0  0  0  0  0
   20.7338   22.3686   22.0078 H   0  0  0  0  0  0  0  0  0  0  0  0
   21.6373   20.8800   22.2524 H   0  0  0  0  0  0  0  0  0  0  0  0
   19.6851   20.9218   23.2463 C   0  0  0  0  0  0  0  0  0  0  0  0
   19.9175   21.5944   24.0830 H   0  0  0  0  0  0  0  0  0  0  0  0
   18.6436   21.1349   22.9679 H   0  0  0  0  0  0  0  0  0  0  0  0
   19.8098   19.4668   23.7624 C   0  0  0  0  0  0  0  0  0  0  0  0
   19.2160   19.3785   24.6825 H   0  0  0  0  0  0  0  0  0  0  0  0
   20.8513   19.2634   24.0465 H   0  0  0  0  0  0  0  0  0  0  0  0
   19.3277   18.3976   22.7560 C   0  0  0  0  0  0  0  0  0  0  0  0
   18.3237   18.6579   22.3937 H   0  0  0  0  0  0  0  0  0  0  0  0
   19.9908   18.3820   21.8819 H   0  0  0  0  0  0  0  0  0  0  0  0
   19.3004   16.9901   23.3885 C   0  0  0  0  0  0  0  0  0  0  0  0
   18.6325   16.9878   24.2611 H   0  0  0  0  0  0  0  0  0  0  0  0
   20.3036   16.7290   23.7531 H   0  0  0  0  0  0  0  0  0  0  0  0
   18.8279   15.9236   22.3802 C   0  0  0  0  0  0  0  0  0  0  0  0
   17.8135   16.1437   22.0226 H   0  0  0  0  0  0  0  0  0  0  0  0
   18.8154   14.9294   22.8455 H   0  0  0  0  0  0  0  0  0  0  0  0
   19.4964   15.8827   21.5102 H   0  0  0  0  0  0  0  0  0  0  0  0
  1  2  1  0  0  0  0
  1  3  2  0  0  0  0
  1  4  1  0  0  0  0
  4  5  1  0  0  0  0
  4  6  1  0  0  0  0
  4  7  1  0  0  0  0
  7  8  1  0  0  0  0
  7  9  1  0  0  0  0
  7 10  1  0  0  0  0
 10 11  1  0  0  0  0
 10 12  1  0  0  0  0
 10 13  1  0  0  0  0
 13 14  1  0  0  0  0
 13 15  1  0  0  0  0
 13 16  1  0  0  0  0
 16 17  1  0  0  0  0
 16 18  1  0  0  0  0
 16 19  1  0  0  0  0
 19 20  1  0  0  0  0
 19 21  1  0  0  0  0
 19 22  1  0  0  0  0
M  END
> <VConfSearch Rank>
974

> <Conf_Id>
8

> <Delta U+W>
1.886

> <U+W>
-51.274

> <U>
11.237

> <W>
-62.510

> <W(PB)>
-64.777

> <W(SA)>
2.267

> <Valence>
9.029

> <Coulomb>
1.667

> <VdW>
0.540

> <VdW6>
-8.825

> <VdW12>
9.365

> <Bond>
0.186

> <Angle>
3.195

> <Pdih>
5.642

> <Idih>
0.007

> <Tether>
0.000

$$$$
VeraChem MOL file


 22 21  0  0  0  0  0  0  0  0999 V2000     
   22.0503   20.5127   21.2376 C   0  0  0  0  0  0  0  0  0  0  0  0
   21.4219   21.5446   21.3681 O   0  5  0  0  0  0  0  0  0  0  0  0
   22.6460   20.2125   20.2216 O   0  0  0  0  0  0  0  0  0  0  0  0
   22.1216   19.5539   22.4229 C   0  0  0  0  0  0  0  0  0  0  0  0
   21.7864   20.0818   23.3227 H   0  0  0  0  0  0  0  0  0  0  0  0
   23.1789   19.3122   22.5825 H   0  0  0  0  0  0  0  0  0  0  0  0
   21.3193   18.2384   22.2255 C   0  0  0  0  0  0  0  0  0  0  0  0
   21.7358   17.6998   21.3632 H   0  0  0  0  0  0  0  0  0  0  0  0
   21.4731   17.5882   23.0972 H   0  0  0  0  0  0  0  0  0  0  0  0
   19.8000   18.4373   21.9999 C   0  0  0  0  0  0  0  0  0  0  0  0
   19.3595   17.4567   21.7798 H   0  0  0  0  0  0  0  0  0  0  0  0
   19.6354   19.0579   21.1084 H   0  0  0  0  0  0  0  0  0  0  0  0
   19.0741   19.0686   23.2131 C   0  0  0  0  0  0  0  0  0  0  0  0
   19.2525   18.4615   24.1109 H   0  0  0  0  0  0  0  0  0  0  0  0
   19.5003   20.0599   23.4146 H   0  0  0  0  0  0  0  0  0  0  0  0
   17.5522   19.2397   22.9974 C   0  0  0  0  0  0  0  0  0  0  0  0
   17.3708   19.8338   22.0910 H   0  0  0  0  0  0  0  0  0  0  0  0
   17.1420   19.8200   23.8354 H   0  0  0  0  0  0  0  0  0  0  0  0
   16.7901   17.8998   22.9038 C   0  0  0  0  0  0  0  0  0  0  0  0
   17.0790   17.3347   22.0091 H   0  0  0  0  0  0  0  0  0  0  0  0
   15.7083   18.0773   22.8485 H   0  0  0  0  0  0  0  0  0  0  0  0
   16.9851   17.2745   23.7848 H   0  0  0  0  0  0  0  0  0  0  0  0
  1  2  1  0  0  0  0
  1  3  2  0  0  0  0
  1  4  1  0  0  0  0
  4  5  1  0  0  0  0
  4  6  1  0  0  0  0
  4  7  1  0  0  0  0
  7  8  1  0  0  0  0
  7  9  1  0  0  0  0
  7 10  1  0  0  0  0
 10 11  1  0  0  0  0
 10 12  1  0  0  0  0
 10 13  1  0  0  0  0
 13 14  1  0  0  0  0
 13 15  1  0  0  0  0
 13 16  1  0  0  0  0
 16 17  1  0  0  0  0
 16 18  1  0  0  0  0
 16 19  1  0  0  0  0
 19 20  1  0  0  0  0
 19 21  1  0  0  0  0
 19 22  1  0  0  0  0
M  END
> <VConfSearch Rank>
975

> <Conf_Id>
93

> <Delta U+W>
1.836

> <U+W>
-51.323

> <U>
10.427

> <W>
-61.751

> <W(PB)>
-63.980

> <W(SA)>
2.230

> <Valence>
8.446

> <Coulomb>
1.306

> <VdW>
0.676

> <VdW6>
-8.928

> <VdW12>
9.604

> <Bond>
0.209

> <Angle>
3.066

> <Pdih>
5.170

> <Idih>
0.001

> <Tether>
0.000

$$$$
VeraChem MOL file


 22 21  0  0  0  0  0  0  0  0999 V2000     
   19.2593   16.4285   23.8991 C   0  0  0  0  0  0  0  0  0  0  0  0
   19.9980   15.4650   23.8417 O   0  5  0  0  0  0  0  0  0  0  0  0
   18.1104   16.4188   23.5032 O   0  0  0  0  0  0  0  0  0  0  0  0
   19.7965   17.7098   24.5305 C   0  0  0  0  0  0  0  0  0  0  0  0
   20.2445   17.4353   25.4927 H   0  0  0  0  0  0  0  0  0  0  0  0
   18.9521   18.3694   24.7601 H   0  0  0  0  0  0  0  0  0  0  0  0
   20.8536   18.4499   23.6656 C   0  0  0  0  0  0  0  0  0  0  0  0
   21.2246   19.3232   24.2189 H   0  0  0  0  0  0  0  0  0  0  0  0
   21.7177   17.7861   23.5241 H   0  0  0  0  0  0  0  0  0  0  0  0
   20.3450   18.9058   22.2756 C   0  0  0  0  0  0  0  0  0  0  0  0
   20.0045   18.0336   21.7008 H   0  0  0  0  0  0  0  0  0  0  0  0
   21.1960   19.3260   21.7251 H   0  0  0  0  0  0  0  0  0  0  0  0
   19.2087   19.9550   22.3488 C   0  0  0  0  0  0  0  0  0  0  0  0
   18.3497   19.5225   22.8780 H   0  0  0  0  0  0  0  0  0  0  0  0
   19.5384   20.8204   22.9395 H   0  0  0  0  0  0  0  0  0  0  0  0
   18.7218   20.4310   20.9601 C   0  0  0  0  0  0  0  0  0  0  0  0
   17.8284   21.0558   21.0965 H   0  0  0  0  0  0  0  0  0  0  0  0
   18.4060   19.5654   20.3614 H   0  0  0  0  0  0  0  0  0  0  0  0
   19.7800   21.2442   20.1831 C   0  0  0  0  0  0  0  0  0  0  0  0
   20.6453   20.6255   19.9150 H   0  0  0  0  0  0  0  0  0  0  0  0
   20.1357   22.0957   20.7778 H   0  0  0  0  0  0  0  0  0  0  0  0
   19.3529   21.6378   19.2517 H   0  0  0  0  0  0  0  0  0  0  0  0
  1  2  1  0  0  0  0
  1  3  2  0  0  0  0
  1  4  1  0  0  0  0
  4  5  1  0  0  0  0
  4  6  1  0  0  0  0
  4  7  1  0  0  0  0
  7  8  1  0  0  0  0
  7  9  1  0  0  0  0
  7 10  1  0  0  0  0
 10 11  1  0  0  0  0
 10 12  1  0  0  0  0
 10 13  1  0  0  0  0
 13 14  1  0  0  0  0
 13 15  1  0  0  0  0
 13 16  1  0  0  0  0
 16 17  1  0  0  0  0
 16 18  1  0  0  0  0
 16 19  1  0  0  0  0
 19 20  1  0  0  0  0
 19 21  1  0  0  0  0
 19 22  1  0  0  0  0
M  END
> <VConfSearch Rank>
976

> <Conf_Id>
70

> <Delta U+W>
1.803

> <U+W>
-51.356

> <U>
10.428

> <W>
-61.784

> <W(PB)>
-64.014

> <W(SA)>
2.230

> <Valence>
8.445

> <Coulomb>
1.306

> <VdW>
0.676

> <VdW6>
-8.929

> <VdW12>
9.605

> <Bond>
0.209

> <Angle>
3.066

> <Pdih>
5.170

> <Idih>
0.001

> <Tether>
0.000

$$$$
VeraChem MOL file


 22 21  0  0  0  0  0  0  0  0999 V2000     
   19.9075   16.1811   24.1076 C   0  0  0  0  0  0  0  0  0  0  0  0
   20.7565   15.5466   23.5131 O   0  5  0  0  0  0  0  0  0  0  0  0
   18.7820   15.7709   24.3126 O   0  0  0  0  0  0  0  0  0  0  0  0
   20.2839   17.5595   24.6437 C   0  0  0  0  0  0  0  0  0  0  0  0
   21.2664   17.4689   25.1216 H   0  0  0  0  0  0  0  0  0  0  0  0
   19.5722   17.8351   25.4314 H   0  0  0  0  0  0  0  0  0  0  0  0
   20.3362   18.6648   23.5572 C   0  0  0  0  0  0  0  0  0  0  0  0
   20.7387   19.5844   24.0029 H   0  0  0  0  0  0  0  0  0  0  0  0
   21.0393   18.3580   22.7716 H   0  0  0  0  0  0  0  0  0  0  0  0
   18.9457   18.9597   22.9455 C   0  0  0  0  0  0  0  0  0  0  0  0
   18.2381   19.1786   23.7569 H   0  0  0  0  0  0  0  0  0  0  0  0
   18.5644   18.0639   22.4362 H   0  0  0  0  0  0  0  0  0  0  0  0
   18.9467   20.1519   21.9596 C   0  0  0  0  0  0  0  0  0  0  0  0
   17.9083   20.3666   21.6723 H   0  0  0  0  0  0  0  0  0  0  0  0
   19.3203   21.0508   22.4687 H   0  0  0  0  0  0  0  0  0  0  0  0
   19.7771   19.8934   20.6821 C   0  0  0  0  0  0  0  0  0  0  0  0
   19.4382   18.9654   20.2014 H   0  0  0  0  0  0  0  0  0  0  0  0
   20.8349   19.7527   20.9404 H   0  0  0  0  0  0  0  0  0  0  0  0
   19.6560   21.0617   19.6830 C   0  0  0  0  0  0  0  0  0  0  0  0
   18.6132   21.2068   19.3720 H   0  0  0  0  0  0  0  0  0  0  0  0
   20.2534   20.8645   18.7833 H   0  0  0  0  0  0  0  0  0  0  0  0
   20.0145   21.9985   20.1294 H   0  0  0  0  0  0  0  0  0  0  0  0
  1  2  1  0  0  0  0
  1  3  2  0  0  0  0
  1  4  1  0  0  0  0
  4  5  1  0  0  0  0
  4  6  1  0  0  0  0
  4  7  1  0  0  0  0
  7  8  1  0  0  0  0
  7  9  1  0  0  0  0
  7 10  1  0  0  0  0
 10 11  1  0  0  0  0
 10 12  1  0  0  0  0
 10 13  1  0  0  0  0
 13 14  1  0  0  0  0
 13 15  1  0  0  0  0
 13 16  1  0  0  0  0
 16 17  1  0  0  0  0
 16 18  1  0  0  0  0
 16 19  1  0  0  0  0
 19 20  1  0  0  0  0
 19 21  1  0  0  0  0
 19 22  1  0  0  0  0
M  END
> <VConfSearch Rank>
977

> <Conf_Id>
85

> <Delta U+W>
0.707

> <U+W>
-52.452

> <U>
8.925

> <W>
-61.378

> <W(PB)>
-63.661

> <W(SA)>
2.283

> <Valence>
7.881

> <Coulomb>
0.349

> <VdW>
0.695

> <VdW6>
-8.049

> <VdW12>
8.743

> <Bond>
0.156

> <Angle>
2.660

> <Pdih>
5.064

> <Idih>
0.001

> <Tether>
0.000

$$$$
VeraChem MOL file


 22 21  0  0  0  0  0  0  0  0999 V2000     
   21.0156   15.9122   21.3784 C   0  0  0  0  0  0  0  0  0  0  0  0
   21.2031   15.8682   20.1785 O   0  5  0  0  0  0  0  0  0  0  0  0
   21.8210   15.5190   22.1992 O   0  0  0  0  0  0  0  0  0  0  0  0
   19.6877   16.4698   21.8834 C   0  0  0  0  0  0  0  0  0  0  0  0
   19.3132   15.7793   22.6482 H   0  0  0  0  0  0  0  0  0  0  0  0
   18.9641   16.4536   21.0594 H   0  0  0  0  0  0  0  0  0  0  0  0
   19.7870   17.8978   22.4806 C   0  0  0  0  0  0  0  0  0  0  0  0
   18.8272   18.1422   22.9528 H   0  0  0  0  0  0  0  0  0  0  0  0
   20.5486   17.9103   23.2725 H   0  0  0  0  0  0  0  0  0  0  0  0
   20.1190   18.9672   21.4141 C   0  0  0  0  0  0  0  0  0  0  0  0
   19.3092   19.0068   20.6729 H   0  0  0  0  0  0  0  0  0  0  0  0
   21.0212   18.6625   20.8663 H   0  0  0  0  0  0  0  0  0  0  0  0
   20.3612   20.3854   21.9890 C   0  0  0  0  0  0  0  0  0  0  0  0
   21.2295   20.3755   22.6620 H   0  0  0  0  0  0  0  0  0  0  0  0
   20.6416   21.0375   21.1506 H   0  0  0  0  0  0  0  0  0  0  0  0
   19.1377   21.0152   22.7006 C   0  0  0  0  0  0  0  0  0  0  0  0
   18.2047   20.6098   22.2853 H   0  0  0  0  0  0  0  0  0  0  0  0
   19.1238   22.0929   22.4870 H   0  0  0  0  0  0  0  0  0  0  0  0
   19.1653   20.8334   24.2346 C   0  0  0  0  0  0  0  0  0  0  0  0
   19.1652   19.7756   24.5207 H   0  0  0  0  0  0  0  0  0  0  0  0
   18.2861   21.3046   24.6928 H   0  0  0  0  0  0  0  0  0  0  0  0
   20.0598   21.3006   24.6666 H   0  0  0  0  0  0  0  0  0  0  0  0
  1  2  1  0  0  0  0
  1  3  2  0  0  0  0
  1  4  1  0  0  0  0
  4  5  1  0  0  0  0
  4  6  1  0  0  0  0
  4  7  1  0  0  0  0
  7  8  1  0  0  0  0
  7  9  1  0  0  0  0
  7 10  1  0  0  0  0
 10 11  1  0  0  0  0
 10 12  1  0  0  0  0
 10 13  1  0  0  0  0
 13 14  1  0  0  0  0
 13 15  1  0  0  0  0
 13 16  1  0  0  0  0
 16 17  1  0  0  0  0
 16 18  1  0  0  0  0
 16 19  1  0  0  0  0
 19 20  1  0  0  0  0
 19 21  1  0  0  0  0
 19 22  1  0  0  0  0
M  END
> <VConfSearch Rank>
978

> <Conf_Id>
82

> <Delta U+W>
3.438

> <U+W>
-49.721

> <U>
11.773

> <W>
-61.495

> <W(PB)>
-63.749

> <W(SA)>
2.254

> <Valence>
10.419

> <Coulomb>
0.565

> <VdW>
0.789

> <VdW6>
-8.847

> <VdW12>
9.636

> <Bond>
0.200

> <Angle>
3.187

> <Pdih>
7.032

> <Idih>
0.001

> <Tether>
0.000

$$$$
VeraChem MOL file


 22 21  0  0  0  0  0  0  0  0999 V2000     
   18.7171   19.4141   19.3140 C   0  0  0  0  0  0  0  0  0  0  0  0
   18.8219   20.5970   19.0555 O   0  5  0  0  0  0  0  0  0  0  0  0
   19.0221   18.5276   18.5406 O   0  0  0  0  0  0  0  0  0  0  0  0
   18.1496   19.0229   20.6757 C   0  0  0  0  0  0  0  0  0  0  0  0
   17.8026   17.9837   20.6259 H   0  0  0  0  0  0  0  0  0  0  0  0
   17.2641   19.6450   20.8515 H   0  0  0  0  0  0  0  0  0  0  0  0
   19.1463   19.1987   21.8510 C   0  0  0  0  0  0  0  0  0  0  0  0
   19.5215   20.2314   21.8602 H   0  0  0  0  0  0  0  0  0  0  0  0
   18.6020   19.0454   22.7913 H   0  0  0  0  0  0  0  0  0  0  0  0
   20.3318   18.2086   21.7792 C   0  0  0  0  0  0  0  0  0  0  0  0
   20.8074   18.2861   20.7919 H   0  0  0  0  0  0  0  0  0  0  0  0
   19.9534   17.1802   21.8570 H   0  0  0  0  0  0  0  0  0  0  0  0
   21.4204   18.4401   22.8571 C   0  0  0  0  0  0  0  0  0  0  0  0
   22.2284   17.7198   22.6696 H   0  0  0  0  0  0  0  0  0  0  0  0
   21.8714   19.4337   22.7293 H   0  0  0  0  0  0  0  0  0  0  0  0
   20.9382   18.2533   24.3174 C   0  0  0  0  0  0  0  0  0  0  0  0
   21.7489   17.7925   24.8986 H   0  0  0  0  0  0  0  0  0  0  0  0
   20.0972   17.5471   24.3539 H   0  0  0  0  0  0  0  0  0  0  0  0
   20.5531   19.5815   25.0062 C   0  0  0  0  0  0  0  0  0  0  0  0
   21.4104   20.2664   25.0395 H   0  0  0  0  0  0  0  0  0  0  0  0
   20.2296   19.3987   26.0390 H   0  0  0  0  0  0  0  0  0  0  0  0
   19.7347   20.0902   24.4842 H   0  0  0  0  0  0  0  0  0  0  0  0
  1  2  1  0  0  0  0
  1  3  2  0  0  0  0
  1  4  1  0  0  0  0
  4  5  1  0  0  0  0
  4  6  1  0  0  0  0
  4  7  1  0  0  0  0
  7  8  1  0  0  0  0
  7  9  1  0  0  0  0
  7 10  1  0  0  0  0
 10 11  1  0  0  0  0
 10 12  1  0  0  0  0
 10 13  1  0  0  0  0
 13 14  1  0  0  0  0
 13 15  1  0  0  0  0
 13 16  1  0  0  0  0
 16 17  1  0  0  0  0
 16 18  1  0  0  0  0
 16 19  1  0  0  0  0
 19 20  1  0  0  0  0
 19 21  1  0  0  0  0
 19 22  1  0  0  0  0
M  END
> <VConfSearch Rank>
979

> <Conf_Id>
94

> <Delta U+W>
3.471

> <U+W>
-49.688

> <U>
11.773

> <W>
-61.461

> <W(PB)>
-63.710

> <W(SA)>
2.248

> <Valence>
10.419

> <Coulomb>
0.566

> <VdW>
0.789

> <VdW6>
-8.847

> <VdW12>
9.636

> <Bond>
0.200

> <Angle>
3.187

> <Pdih>
7.032

> <Idih>
0.001

> <Tether>
0.000

$$$$
VeraChem MOL file


 22 21  0  0  0  0  0  0  0  0999 V2000     
   21.7066   17.1284   24.2798 C   0  0  0  0  0  0  0  0  0  0  0  0
   22.8918   16.8618   24.2532 O   0  5  0  0  0  0  0  0  0  0  0  0
   20.8561   16.3710   24.7034 O   0  0  0  0  0  0  0  0  0  0  0  0
   21.2605   18.4800   23.7337 C   0  0  0  0  0  0  0  0  0  0  0  0
   22.0569   19.2074   23.9312 H   0  0  0  0  0  0  0  0  0  0  0  0
   20.3806   18.7969   24.3050 H   0  0  0  0  0  0  0  0  0  0  0  0
   20.9384   18.4380   22.2174 C   0  0  0  0  0  0  0  0  0  0  0  0
   21.8110   18.0391   21.6821 H   0  0  0  0  0  0  0  0  0  0  0  0
   20.1201   17.7288   22.0350 H   0  0  0  0  0  0  0  0  0  0  0  0
   20.5847   19.8239   21.6220 C   0  0  0  0  0  0  0  0  0  0  0  0
   20.4234   19.7154   20.5414 H   0  0  0  0  0  0  0  0  0  0  0  0
   21.4540   20.4871   21.7273 H   0  0  0  0  0  0  0  0  0  0  0  0
   19.3517   20.5200   22.2562 C   0  0  0  0  0  0  0  0  0  0  0  0
   19.5760   20.7768   23.2998 H   0  0  0  0  0  0  0  0  0  0  0  0
   19.1889   21.4779   21.7439 H   0  0  0  0  0  0  0  0  0  0  0  0
   18.0378   19.7017   22.2122 C   0  0  0  0  0  0  0  0  0  0  0  0
   17.2479   20.2804   22.7102 H   0  0  0  0  0  0  0  0  0  0  0  0
   18.1489   18.7765   22.7932 H   0  0  0  0  0  0  0  0  0  0  0  0
   17.5773   19.3644   20.7776 C   0  0  0  0  0  0  0  0  0  0  0  0
   17.4755   20.2752   20.1734 H   0  0  0  0  0  0  0  0  0  0  0  0
   16.6031   18.8590   20.7956 H   0  0  0  0  0  0  0  0  0  0  0  0
   18.2897   18.6965   20.2772 H   0  0  0  0  0  0  0  0  0  0  0  0
  1  2  1  0  0  0  0
  1  3  2  0  0  0  0
  1  4  1  0  0  0  0
  4  5  1  0  0  0  0
  4  6  1  0  0  0  0
  4  7  1  0  0  0  0
  7  8  1  0  0  0  0
  7  9  1  0  0  0  0
  7 10  1  0  0  0  0
 10 11  1  0  0  0  0
 10 12  1  0  0  0  0
 10 13  1  0  0  0  0
 13 14  1  0  0  0  0
 13 15  1  0  0  0  0
 13 16  1  0  0  0  0
 16 17  1  0  0  0  0
 16 18  1  0  0  0  0
 16 19  1  0  0  0  0
 19 20  1  0  0  0  0
 19 21  1  0  0  0  0
 19 22  1  0  0  0  0
M  END
> <VConfSearch Rank>
980

> <Conf_Id>
56

> <Delta U+W>
0.853

> <U+W>
-52.307

> <U>
8.874

> <W>
-61.181

> <W(PB)>
-63.413

> <W(SA)>
2.232

> <Valence>
8.479

> <Coulomb>
-0.357

> <VdW>
0.753

> <VdW6>
-9.081

> <VdW12>
9.833

> <Bond>
0.221

> <Angle>
3.208

> <Pdih>
5.050

> <Idih>
0.000

> <Tether>
0.000

$$$$
VeraChem MOL file


 22 21  0  0  0  0  0  0  0  0999 V2000     
   20.1239   16.2616   25.1772 C   0  0  0  0  0  0  0  0  0  0  0  0
   20.8216   15.5089   24.5253 O   0  5  0  0  0  0  0  0  0  0  0  0
   19.7873   16.0303   26.3214 O   0  0  0  0  0  0  0  0  0  0  0  0
   19.6306   17.5691   24.5553 C   0  0  0  0  0  0  0  0  0  0  0  0
   19.9766   18.3876   25.1974 H   0  0  0  0  0  0  0  0  0  0  0  0
   18.5354   17.5625   24.6058 H   0  0  0  0  0  0  0  0  0  0  0  0
   20.0866   17.8208   23.0934 C   0  0  0  0  0  0  0  0  0  0  0  0
   21.1845   17.8200   23.0488 H   0  0  0  0  0  0  0  0  0  0  0  0
   19.7419   16.9943   22.4566 H   0  0  0  0  0  0  0  0  0  0  0  0
   19.5454   19.1593   22.5455 C   0  0  0  0  0  0  0  0  0  0  0  0
   19.8912   19.9840   23.1837 H   0  0  0  0  0  0  0  0  0  0  0  0
   18.4476   19.1578   22.5912 H   0  0  0  0  0  0  0  0  0  0  0  0
   20.0000   19.4077   21.0912 C   0  0  0  0  0  0  0  0  0  0  0  0
   21.0977   19.4092   21.0450 H   0  0  0  0  0  0  0  0  0  0  0  0
   19.6544   18.5831   20.4526 H   0  0  0  0  0  0  0  0  0  0  0  0
   19.4596   20.7450   20.5430 C   0  0  0  0  0  0  0  0  0  0  0  0
   19.8050   21.5725   21.1782 H   0  0  0  0  0  0  0  0  0  0  0  0
   18.3616   20.7464   20.5859 H   0  0  0  0  0  0  0  0  0  0  0  0
   19.9158   20.9893   19.0906 C   0  0  0  0  0  0  0  0  0  0  0  0
   21.0111   21.0241   19.0235 H   0  0  0  0  0  0  0  0  0  0  0  0
   19.5228   21.9438   18.7170 H   0  0  0  0  0  0  0  0  0  0  0  0
   19.5568   20.1919   18.4268 H   0  0  0  0  0  0  0  0  0  0  0  0
  1  2  1  0  0  0  0
  1  3  2  0  0  0  0
  1  4  1  0  0  0  0
  4  5  1  0  0  0  0
  4  6  1  0  0  0  0
  4  7  1  0  0  0  0
  7  8  1  0  0  0  0
  7  9  1  0  0  0  0
  7 10  1  0  0  0  0
 10 11  1  0  0  0  0
 10 12  1  0  0  0  0
 10 13  1  0  0  0  0
 13 14  1  0  0  0  0
 13 15  1  0  0  0  0
 13 16  1  0  0  0  0
 16 17  1  0  0  0  0
 16 18  1  0  0  0  0
 16 19  1  0  0  0  0
 19 20  1  0  0  0  0
 19 21  1  0  0  0  0
 19 22  1  0  0  0  0
M  END
> <VConfSearch Rank>
981

> <Conf_Id>
0

> <Delta U+W>
0.000

> <U+W>
-53.159

> <U>
6.763

> <W>
-59.922

> <W(PB)>
-62.256

> <W(SA)>
2.334

> <Valence>
7.600

> <Coulomb>
-2.139

> <VdW>
1.302

> <VdW6>
-6.786

> <VdW12>
8.088

> <Bond>
0.134

> <Angle>
2.720

> <Pdih>
4.746

> <Idih>
0.000

> <Tether>
0.000

$$$$
VeraChem MOL file


 22 21  0  0  0  0  0  0  0  0999 V2000     
   15.8239   19.3244   22.6869 C   0  0  0  0  0  0  0  0  0  0  0  0
   15.4700   20.3939   23.1421 O   0  5  0  0  0  0  0  0  0  0  0  0
   15.2567   18.2745   22.9161 O   0  0  0  0  0  0  0  0  0  0  0  0
   17.0614   19.2947   21.7970 C   0  0  0  0  0  0  0  0  0  0  0  0
   17.1068   20.2412   21.2449 H   0  0  0  0  0  0  0  0  0  0  0  0
   16.9308   18.4946   21.0584 H   0  0  0  0  0  0  0  0  0  0  0  0
   18.3710   19.0777   22.5944 C   0  0  0  0  0  0  0  0  0  0  0  0
   18.4802   19.8794   23.3380 H   0  0  0  0  0  0  0  0  0  0  0  0
   18.3042   18.1328   23.1515 H   0  0  0  0  0  0  0  0  0  0  0  0
   19.6084   19.0515   21.6714 C   0  0  0  0  0  0  0  0  0  0  0  0
   19.6715   19.9969   21.1151 H   0  0  0  0  0  0  0  0  0  0  0  0
   19.4955   18.2499   20.9285 H   0  0  0  0  0  0  0  0  0  0  0  0
   20.9123   18.8350   22.4690 C   0  0  0  0  0  0  0  0  0  0  0  0
   21.0256   19.6364   23.2120 H   0  0  0  0  0  0  0  0  0  0  0  0
   20.8496   17.8897   23.0255 H   0  0  0  0  0  0  0  0  0  0  0  0
   22.1495   18.8088   21.5472 C   0  0  0  0  0  0  0  0  0  0  0  0
   22.2167   19.7537   20.9903 H   0  0  0  0  0  0  0  0  0  0  0  0
   22.0407   18.0069   20.8038 H   0  0  0  0  0  0  0  0  0  0  0  0
   23.4495   18.5923   22.3475 C   0  0  0  0  0  0  0  0  0  0  0  0
   23.4225   17.6382   22.8900 H   0  0  0  0  0  0  0  0  0  0  0  0
   23.5998   19.3980   23.0781 H   0  0  0  0  0  0  0  0  0  0  0  0
   24.3185   18.5765   21.6770 H   0  0  0  0  0  0  0  0  0  0  0  0
  1  2  1  0  0  0  0
  1  3  2  0  0  0  0
  1  4  1  0  0  0  0
  4  5  1  0  0  0  0
  4  6  1  0  0  0  0
  4  7  1  0  0  0  0
  7  8  1  0  0  0  0
  7  9  1  0  0  0  0
  7 10  1  0  0  0  0
 10 11  1  0  0  0  0
 10 12  1  0  0  0  0
 10 13  1  0  0  0  0
 13 14  1  0  0  0  0
 13 15  1  0  0  0  0
 13 16  1  0  0  0  0
 16 17  1  0  0  0  0
 16 18  1  0  0  0  0
 16 19  1  0  0  0  0
 19 20  1  0  0  0  0
 19 21  1  0  0  0  0
 19 22  1  0  0  0  0
M  END
> <VConfSearch Rank>
982

> <Conf_Id>
10

> <Delta U+W>
-1.291

> <U+W>
-54.451

> <U>
5.779

> <W>
-60.230

> <W(PB)>
-62.557

> <W(SA)>
2.328

> <Valence>
7.101

> <Coulomb>
-2.079

> <VdW>
0.757

> <VdW6>
-6.496

> <VdW12>
7.253

> <Bond>
0.100

> <Angle>
2.262

> <Pdih>
4.738

> <Idih>
0.001

> <Tether>
0.000

$$$$
VeraChem MOL file


 22 21  0  0  0  0  0  0  0  0999 V2000     
   22.2159   21.0741   19.9496 C   0  0  0  0  0  0  0  0  0  0  0  0
   21.6006   21.7801   19.1753 O   0  5  0  0  0  0  0  0  0  0  0  0
   23.3294   21.3359   20.3596 O   0  0  0  0  0  0  0  0  0  0  0  0
   21.5452   19.8000   20.4506 C   0  0  0  0  0  0  0  0  0  0  0  0
   22.3260   19.0500   20.6253 H   0  0  0  0  0  0  0  0  0  0  0  0
   20.9008   19.4168   19.6504 H   0  0  0  0  0  0  0  0  0  0  0  0
   20.7194   20.0223   21.7416 C   0  0  0  0  0  0  0  0  0  0  0  0
   21.3762   20.4185   22.5285 H   0  0  0  0  0  0  0  0  0  0  0  0
   19.9504   20.7846   21.5539 H   0  0  0  0  0  0  0  0  0  0  0  0
   20.0509   18.7182   22.2282 C   0  0  0  0  0  0  0  0  0  0  0  0
   20.8219   17.9588   22.4170 H   0  0  0  0  0  0  0  0  0  0  0  0
   19.4031   18.3275   21.4326 H   0  0  0  0  0  0  0  0  0  0  0  0
   19.2247   18.9462   23.5149 C   0  0  0  0  0  0  0  0  0  0  0  0
   19.8701   19.4026   24.2778 H   0  0  0  0  0  0  0  0  0  0  0  0
   18.4205   19.6676   23.3157 H   0  0  0  0  0  0  0  0  0  0  0  0
   18.6212   17.6466   24.0964 C   0  0  0  0  0  0  0  0  0  0  0  0
   18.1545   17.8769   25.0640 H   0  0  0  0  0  0  0  0  0  0  0  0
   19.4234   16.9248   24.3029 H   0  0  0  0  0  0  0  0  0  0  0  0
   17.5636   16.9987   23.1765 C   0  0  0  0  0  0  0  0  0  0  0  0
   17.1034   16.1335   23.6709 H   0  0  0  0  0  0  0  0  0  0  0  0
   18.0104   16.6460   22.2386 H   0  0  0  0  0  0  0  0  0  0  0  0
   16.7659   17.7120   22.9317 H   0  0  0  0  0  0  0  0  0  0  0  0
  1  2  1  0  0  0  0
  1  3  2  0  0  0  0
  1  4  1  0  0  0  0
  4  5  1  0  0  0  0
  4  6  1  0  0  0  0
  4  7  1  0  0  0  0
  7  8  1  0  0  0  0
  7  9  1  0  0  0  0
  7 10  1  0  0  0  0
 10 11  1  0  0  0  0
 10 12  1  0  0  0  0
 10 13  1  0  0  0  0
 13 14  1  0  0  0  0
 13 15  1  0  0  0  0
 13 16  1  0  0  0  0
 16 17  1  0  0  0  0
 16 18  1  0  0  0  0
 16 19  1  0  0  0  0
 19 20  1  0  0  0  0
 19 21  1  0  0  0  0
 19 22  1  0  0  0  0
M  END
> <VConfSearch Rank>
983

> <Conf_Id>
37

> <Delta U+W>
-0.345

> <U+W>
-53.504

> <U>
6.751

> <W>
-60.255

> <W(PB)>
-62.592

> <W(SA)>
2.336

> <Valence>
7.602

> <Coulomb>
-1.744

> <VdW>
0.894

> <VdW6>
-7.110

> <VdW12>
8.004

> <Bond>
0.131

> <Angle>
2.489

> <Pdih>
4.982

> <Idih>
0.001

> <Tether>
0.000

$$$$
VeraChem MOL file


 22 21  0  0  0  0  0  0  0  0999 V2000     
   21.9827   20.1548   25.2159 C   0  0  0  0  0  0  0  0  0  0  0  0
   21.5043   19.8463   26.2894 O   0  5  0  0  0  0  0  0  0  0  0  0
   22.7191   21.1081   25.0562 O   0  0  0  0  0  0  0  0  0  0  0  0
   21.6216   19.3121   23.9978 C   0  0  0  0  0  0  0  0  0  0  0  0
   21.4772   18.2771   24.3303 H   0  0  0  0  0  0  0  0  0  0  0  0
   22.4790   19.3164   23.3141 H   0  0  0  0  0  0  0  0  0  0  0  0
   20.3538   19.8209   23.2684 C   0  0  0  0  0  0  0  0  0  0  0  0
   19.5076   19.8222   23.9694 H   0  0  0  0  0  0  0  0  0  0  0  0
   20.5097   20.8623   22.9542 H   0  0  0  0  0  0  0  0  0  0  0  0
   20.0097   18.9514   22.0395 C   0  0  0  0  0  0  0  0  0  0  0  0
   19.8633   17.9128   22.3634 H   0  0  0  0  0  0  0  0  0  0  0  0
   20.8565   18.9538   21.3396 H   0  0  0  0  0  0  0  0  0  0  0  0
   18.7414   19.4611   21.3172 C   0  0  0  0  0  0  0  0  0  0  0  0
   17.8817   19.4121   21.9995 H   0  0  0  0  0  0  0  0  0  0  0  0
   18.8766   20.5213   21.0628 H   0  0  0  0  0  0  0  0  0  0  0  0
   18.4175   18.6828   20.0208 C   0  0  0  0  0  0  0  0  0  0  0  0
   19.2728   18.7350   19.3330 H   0  0  0  0  0  0  0  0  0  0  0  0
   17.5795   19.1789   19.5119 H   0  0  0  0  0  0  0  0  0  0  0  0
   18.0422   17.2061   20.2718 C   0  0  0  0  0  0  0  0  0  0  0  0
   17.2078   17.1278   20.9808 H   0  0  0  0  0  0  0  0  0  0  0  0
   18.8912   16.6398   20.6747 H   0  0  0  0  0  0  0  0  0  0  0  0
   17.7359   16.7234   19.3348 H   0  0  0  0  0  0  0  0  0  0  0  0
  1  2  1  0  0  0  0
  1  3  2  0  0  0  0
  1  4  1  0  0  0  0
  4  5  1  0  0  0  0
  4  6  1  0  0  0  0
  4  7  1  0  0  0  0
  7  8  1  0  0  0  0
  7  9  1  0  0  0  0
  7 10  1  0  0  0  0
 10 11  1  0  0  0  0
 10 12  1  0  0  0  0
 10 13  1  0  0  0  0
 13 14  1  0  0  0  0
 13 15  1  0  0  0  0
 13 16  1  0  0  0  0
 16 17  1  0  0  0  0
 16 18  1  0  0  0  0
 16 19  1  0  0  0  0
 19 20  1  0  0  0  0
 19 21  1  0  0  0  0
 19 22  1  0  0  0  0
M  END
> <VConfSearch Rank>
984

> <Conf_Id>
38

> <Delta U+W>
-0.439

> <U+W>
-53.598

> <U>
6.751

> <W>
-60.350

> <W(PB)>
-62.659

> <W(SA)>
2.309

> <Valence>
7.602

> <Coulomb>
-1.744

> <VdW>
0.893

> <VdW6>
-7.110

> <VdW12>
8.004

> <Bond>
0.131

> <Angle>
2.489

> <Pdih>
4.981

> <Idih>
0.001

> <Tether>
0.000

$$$$
VeraChem MOL file


 22 21  0  0  0  0  0  0  0  0999 V2000     
   23.0028   20.3471   23.8458 C   0  0  0  0  0  0  0  0  0  0  0  0
   23.6547   21.2674   23.3935 O   0  5  0  0  0  0  0  0  0  0  0  0
   23.4449   19.5314   24.6306 O   0  0  0  0  0  0  0  0  0  0  0  0
   21.5573   20.1942   23.3860 C   0  0  0  0  0  0  0  0  0  0  0  0
   21.1569   21.1951   23.1849 H   0  0  0  0  0  0  0  0  0  0  0  0
   20.9850   19.7764   24.2216 H   0  0  0  0  0  0  0  0  0  0  0  0
   21.4204   19.3002   22.1260 C   0  0  0  0  0  0  0  0  0  0  0  0
   22.0823   19.6944   21.3424 H   0  0  0  0  0  0  0  0  0  0  0  0
   21.7792   18.2868   22.3535 H   0  0  0  0  0  0  0  0  0  0  0  0
   19.9791   19.2317   21.5668 C   0  0  0  0  0  0  0  0  0  0  0  0
   20.0124   18.7000   20.6073 H   0  0  0  0  0  0  0  0  0  0  0  0
   19.6205   20.2467   21.3484 H   0  0  0  0  0  0  0  0  0  0  0  0
   18.9843   18.5186   22.5154 C   0  0  0  0  0  0  0  0  0  0  0  0
   19.3439   17.5042   22.7351 H   0  0  0  0  0  0  0  0  0  0  0  0
   18.9478   19.0510   23.4742 H   0  0  0  0  0  0  0  0  0  0  0  0
   17.5449   18.4465   21.9541 C   0  0  0  0  0  0  0  0  0  0  0  0
   17.1857   19.4586   21.7222 H   0  0  0  0  0  0  0  0  0  0  0  0
   16.8817   18.0543   22.7374 H   0  0  0  0  0  0  0  0  0  0  0  0
   17.4174   17.5496   20.7035 C   0  0  0  0  0  0  0  0  0  0  0  0
   17.9675   17.9676   19.8514 H   0  0  0  0  0  0  0  0  0  0  0  0
   16.3653   17.4559   20.4047 H   0  0  0  0  0  0  0  0  0  0  0  0
   17.8031   16.5412   20.9021 H   0  0  0  0  0  0  0  0  0  0  0  0
  1  2  1  0  0  0  0
  1  3  2  0  0  0  0
  1  4  1  0  0  0  0
  4  5  1  0  0  0  0
  4  6  1  0  0  0  0
  4  7  1  0  0  0  0
  7  8  1  0  0  0  0
  7  9  1  0  0  0  0
  7 10  1  0  0  0  0
 10 11  1  0  0  0  0
 10 12  1  0  0  0  0
 10 13  1  0  0  0  0
 13 14  1  0  0  0  0
 13 15  1  0  0  0  0
 13 16  1  0  0  0  0
 16 17  1  0  0  0  0
 16 18  1  0  0  0  0
 16 19  1  0  0  0  0
 19 20  1  0  0  0  0
 19 21  1  0  0  0  0
 19 22  1  0  0  0  0
M  END
> <VConfSearch Rank>
985

> <Conf_Id>
60

> <Delta U+W>
0.386

> <U+W>
-52.773

> <U>
7.689

> <W>
-60.463

> <W(PB)>
-62.772

> <W(SA)>
2.309

> <Valence>
8.197

> <Coulomb>
-1.561

> <VdW>
1.053

> <VdW6>
-7.737

> <VdW12>
8.790

> <Bond>
0.181

> <Angle>
2.780

> <Pdih>
5.235

> <Idih>
0.001

> <Tether>
0.000

$$$$
VeraChem MOL file


 22 21  0  0  0  0  0  0  0  0999 V2000     
   18.7640   21.6610   24.5988 C   0  0  0  0  0  0  0  0  0  0  0  0
   17.8909   22.3335   24.0871 O   0  5  0  0  0  0  0  0  0  0  0  0
   19.4239   22.0270   25.5513 O   0  0  0  0  0  0  0  0  0  0  0  0
   19.0637   20.2919   23.9989 C   0  0  0  0  0  0  0  0  0  0  0  0
   18.1218   19.8835   23.6159 H   0  0  0  0  0  0  0  0  0  0  0  0
   19.3999   19.6324   24.8078 H   0  0  0  0  0  0  0  0  0  0  0  0
   20.1328   20.3500   22.8767 C   0  0  0  0  0  0  0  0  0  0  0  0
   19.7648   20.9737   22.0503 H   0  0  0  0  0  0  0  0  0  0  0  0
   21.0271   20.8531   23.2698 H   0  0  0  0  0  0  0  0  0  0  0  0
   20.5450   18.9588   22.3389 C   0  0  0  0  0  0  0  0  0  0  0  0
   20.9046   18.3353   23.1688 H   0  0  0  0  0  0  0  0  0  0  0  0
   21.3968   19.0959   21.6607 H   0  0  0  0  0  0  0  0  0  0  0  0
   19.4046   18.2258   21.5904 C   0  0  0  0  0  0  0  0  0  0  0  0
   18.5534   18.0852   22.2684 H   0  0  0  0  0  0  0  0  0  0  0  0
   19.0438   18.8503   20.7618 H   0  0  0  0  0  0  0  0  0  0  0  0
   19.8184   16.8373   21.0492 C   0  0  0  0  0  0  0  0  0  0  0  0
   18.9246   16.3323   20.6578 H   0  0  0  0  0  0  0  0  0  0  0  0
   20.1908   16.2134   21.8735 H   0  0  0  0  0  0  0  0  0  0  0  0
   20.8784   16.9058   19.9283 C   0  0  0  0  0  0  0  0  0  0  0  0
   20.5416   17.5530   19.1080 H   0  0  0  0  0  0  0  0  0  0  0  0
   21.0643   15.9060   19.5150 H   0  0  0  0  0  0  0  0  0  0  0  0
   21.8344   17.2925   20.3023 H   0  0  0  0  0  0  0  0  0  0  0  0
  1  2  1  0  0  0  0
  1  3  2  0  0  0  0
  1  4  1  0  0  0  0
  4  5  1  0  0  0  0
  4  6  1  0  0  0  0
  4  7  1  0  0  0  0
  7  8  1  0  0  0  0
  7  9  1  0  0  0  0
  7 10  1  0  0  0  0
 10 11  1  0  0  0  0
 10 12  1  0  0  0  0
 10 13  1  0  0  0  0
 13 14  1  0  0  0  0
 13 15  1  0  0  0  0
 13 16  1  0  0  0  0
 16 17  1  0  0  0  0
 16 18  1  0  0  0  0
 16 19  1  0  0  0  0
 19 20  1  0  0  0  0
 19 21  1  0  0  0  0
 19 22  1  0  0  0  0
M  END
> <VConfSearch Rank>
986

> <Conf_Id>
28

> <Delta U+W>
0.351

> <U+W>
-52.808

> <U>
7.689

> <W>
-60.498

> <W(PB)>
-62.768

> <W(SA)>
2.270

> <Valence>
8.197

> <Coulomb>
-1.561

> <VdW>
1.053

> <VdW6>
-7.737

> <VdW12>
8.791

> <Bond>
0.181

> <Angle>
2.780

> <Pdih>
5.235

> <Idih>
0.001

> <Tether>
0.000

$$$$
VeraChem MOL file


 22 21  0  0  0  0  0  0  0  0999 V2000     
   23.5481   19.6973   22.5661 C   0  0  0  0  0  0  0  0  0  0  0  0
   24.2380   18.9045   23.1759 O   0  5  0  0  0  0  0  0  0  0  0  0
   23.8919   20.2311   21.5300 O   0  0  0  0  0  0  0  0  0  0  0  0
   22.1665   20.0253   23.1210 C   0  0  0  0  0  0  0  0  0  0  0  0
   21.9311   21.0635   22.8577 H   0  0  0  0  0  0  0  0  0  0  0  0
   22.2175   19.9716   24.2151 H   0  0  0  0  0  0  0  0  0  0  0  0
   21.0639   19.0766   22.5893 C   0  0  0  0  0  0  0  0  0  0  0  0
   21.0462   19.1330   21.4929 H   0  0  0  0  0  0  0  0  0  0  0  0
   21.3185   18.0408   22.8530 H   0  0  0  0  0  0  0  0  0  0  0  0
   19.6737   19.4346   23.1638 C   0  0  0  0  0  0  0  0  0  0  0  0
   19.3958   20.4519   22.8558 H   0  0  0  0  0  0  0  0  0  0  0  0
   19.7334   19.4474   24.2608 H   0  0  0  0  0  0  0  0  0  0  0  0
   18.5605   18.4449   22.7457 C   0  0  0  0  0  0  0  0  0  0  0  0
   18.8360   17.4280   23.0571 H   0  0  0  0  0  0  0  0  0  0  0  0
   17.6438   18.7000   23.2947 H   0  0  0  0  0  0  0  0  0  0  0  0
   18.2580   18.4616   21.2302 C   0  0  0  0  0  0  0  0  0  0  0  0
   19.1399   18.1333   20.6646 H   0  0  0  0  0  0  0  0  0  0  0  0
   18.0339   19.4878   20.9082 H   0  0  0  0  0  0  0  0  0  0  0  0
   17.0688   17.5442   20.8810 C   0  0  0  0  0  0  0  0  0  0  0  0
   16.1572   17.8671   21.4006 H   0  0  0  0  0  0  0  0  0  0  0  0
   17.2774   16.5051   21.1678 H   0  0  0  0  0  0  0  0  0  0  0  0
   16.8688   17.5643   19.8019 H   0  0  0  0  0  0  0  0  0  0  0  0
  1  2  1  0  0  0  0
  1  3  2  0  0  0  0
  1  4  1  0  0  0  0
  4  5  1  0  0  0  0
  4  6  1  0  0  0  0
  4  7  1  0  0  0  0
  7  8  1  0  0  0  0
  7  9  1  0  0  0  0
  7 10  1  0  0  0  0
 10 11  1  0  0  0  0
 10 12  1  0  0  0  0
 10 13  1  0  0  0  0
 13 14  1  0  0  0  0
 13 15  1  0  0  0  0
 13 16  1  0  0  0  0
 16 17  1  0  0  0  0
 16 18  1  0  0  0  0
 16 19  1  0  0  0  0
 19 20  1  0  0  0  0
 19 21  1  0  0  0  0
 19 22  1  0  0  0  0
M  END
> <VConfSearch Rank>
987

> <Conf_Id>
50

> <Delta U+W>
-0.486

> <U+W>
-53.646

> <U>
7.026

> <W>
-60.672

> <W(PB)>
-62.964

> <W(SA)>
2.292

> <Valence>
7.637

> <Coulomb>
-1.488

> <VdW>
0.877

> <VdW6>
-7.165

> <VdW12>
8.043

> <Bond>
0.134

> <Angle>
2.513

> <Pdih>
4.990

> <Idih>
0.001

> <Tether>
0.000

$$$$
VeraChem MOL file


 22 21  0  0  0  0  0  0  0  0999 V2000     
   16.0352   18.5570   22.1519 C   0  0  0  0  0  0  0  0  0  0  0  0
   15.3767   19.4930   21.7437 O   0  5  0  0  0  0  0  0  0  0  0  0
   15.7221   17.8820   23.1125 O   0  0  0  0  0  0  0  0  0  0  0  0
   17.3368   18.2238   21.4314 C   0  0  0  0  0  0  0  0  0  0  0  0
   17.2103   18.4676   20.3697 H   0  0  0  0  0  0  0  0  0  0  0  0
   17.4962   17.1409   21.4988 H   0  0  0  0  0  0  0  0  0  0  0  0
   18.5568   18.9803   22.0125 C   0  0  0  0  0  0  0  0  0  0  0  0
   18.3780   20.0623   21.9460 H   0  0  0  0  0  0  0  0  0  0  0  0
   18.6503   18.7360   23.0789 H   0  0  0  0  0  0  0  0  0  0  0  0
   19.8628   18.6205   21.2668 C   0  0  0  0  0  0  0  0  0  0  0  0
   19.7213   18.8003   20.1923 H   0  0  0  0  0  0  0  0  0  0  0  0
   20.0696   17.5472   21.3777 H   0  0  0  0  0  0  0  0  0  0  0  0
   21.0886   19.4358   21.7423 C   0  0  0  0  0  0  0  0  0  0  0  0
   21.9354   19.2091   21.0801 H   0  0  0  0  0  0  0  0  0  0  0  0
   20.8838   20.5091   21.6278 H   0  0  0  0  0  0  0  0  0  0  0  0
   21.4996   19.1367   23.2017 C   0  0  0  0  0  0  0  0  0  0  0  0
   21.6533   18.0563   23.3295 H   0  0  0  0  0  0  0  0  0  0  0  0
   20.6953   19.4298   23.8891 H   0  0  0  0  0  0  0  0  0  0  0  0
   22.7894   19.8869   23.5908 C   0  0  0  0  0  0  0  0  0  0  0  0
   22.6549   20.9726   23.4984 H   0  0  0  0  0  0  0  0  0  0  0  0
   23.6272   19.5889   22.9469 H   0  0  0  0  0  0  0  0  0  0  0  0
   23.0662   19.6669   24.6301 H   0  0  0  0  0  0  0  0  0  0  0  0
  1  2  1  0  0  0  0
  1  3  2  0  0  0  0
  1  4  1  0  0  0  0
  4  5  1  0  0  0  0
  4  6  1  0  0  0  0
  4  7  1  0  0  0  0
  7  8  1  0  0  0  0
  7  9  1  0  0  0  0
  7 10  1  0  0  0  0
 10 11  1  0  0  0  0
 10 12  1  0  0  0  0
 10 13  1  0  0  0  0
 13 14  1  0  0  0  0
 13 15  1  0  0  0  0
 13 16  1  0  0  0  0
 16 17  1  0  0  0  0
 16 18  1  0  0  0  0
 16 19  1  0  0  0  0
 19 20  1  0  0  0  0
 19 21  1  0  0  0  0
 19 22  1  0  0  0  0
M  END
> <VConfSearch Rank>
988

> <Conf_Id>
51

> <Delta U+W>
-0.517

> <U+W>
-53.677

> <U>
7.026

> <W>
-60.703

> <W(PB)>
-63.007

> <W(SA)>
2.304

> <Valence>
7.638

> <Coulomb>
-1.488

> <VdW>
0.877

> <VdW6>
-7.165

> <VdW12>
8.042

> <Bond>
0.134

> <Angle>
2.513

> <Pdih>
4.990

> <Idih>
0.001

> <Tether>
0.000

$$$$
VeraChem MOL file


 22 21  0  0  0  0  0  0  0  0999 V2000     
   20.1612   16.1220   20.2464 C   0  0  0  0  0  0  0  0  0  0  0  0
   20.6187   16.3892   19.1527 O   0  5  0  0  0  0  0  0  0  0  0  0
   20.6782   15.3387   21.0183 O   0  0  0  0  0  0  0  0  0  0  0  0
   18.8558   16.7937   20.6633 C   0  0  0  0  0  0  0  0  0  0  0  0
   18.4086   16.2137   21.4796 H   0  0  0  0  0  0  0  0  0  0  0  0
   18.1670   16.7280   19.8128 H   0  0  0  0  0  0  0  0  0  0  0  0
   19.0168   18.2771   21.0860 C   0  0  0  0  0  0  0  0  0  0  0  0
   19.4913   18.8388   20.2694 H   0  0  0  0  0  0  0  0  0  0  0  0
   18.0206   18.7156   21.2342 H   0  0  0  0  0  0  0  0  0  0  0  0
   19.8426   18.4394   22.3819 C   0  0  0  0  0  0  0  0  0  0  0  0
   20.8469   18.0182   22.2359 H   0  0  0  0  0  0  0  0  0  0  0  0
   19.3714   17.8656   23.1916 H   0  0  0  0  0  0  0  0  0  0  0  0
   19.9634   19.9204   22.8011 C   0  0  0  0  0  0  0  0  0  0  0  0
   20.4348   20.4935   21.9909 H   0  0  0  0  0  0  0  0  0  0  0  0
   18.9604   20.3430   22.9505 H   0  0  0  0  0  0  0  0  0  0  0  0
   20.7887   20.0833   24.0947 C   0  0  0  0  0  0  0  0  0  0  0  0
   21.7935   19.6631   23.9485 H   0  0  0  0  0  0  0  0  0  0  0  0
   20.3193   19.5126   24.9080 H   0  0  0  0  0  0  0  0  0  0  0  0
   20.9078   21.5635   24.5099 C   0  0  0  0  0  0  0  0  0  0  0  0
   21.4029   22.1524   23.7267 H   0  0  0  0  0  0  0  0  0  0  0  0
   21.4972   21.6607   25.4308 H   0  0  0  0  0  0  0  0  0  0  0  0
   19.9176   22.0008   24.6934 H   0  0  0  0  0  0  0  0  0  0  0  0
  1  2  1  0  0  0  0
  1  3  2  0  0  0  0
  1  4  1  0  0  0  0
  4  5  1  0  0  0  0
  4  6  1  0  0  0  0
  4  7  1  0  0  0  0
  7  8  1  0  0  0  0
  7  9  1  0  0  0  0
  7 10  1  0  0  0  0
 10 11  1  0  0  0  0
 10 12  1  0  0  0  0
 10 13  1  0  0  0  0
 13 14  1  0  0  0  0
 13 15  1  0  0  0  0
 13 16  1  0  0  0  0
 16 17  1  0  0  0  0
 16 18  1  0  0  0  0
 16 19  1  0  0  0  0
 19 20  1  0  0  0  0
 19 21  1  0  0  0  0
 19 22  1  0  0  0  0
M  END
> <VConfSearch Rank>
989

> <Conf_Id>
43

> <Delta U+W>
-0.129

> <U+W>
-53.289

> <U>
7.937

> <W>
-61.225

> <W(PB)>
-63.523

> <W(SA)>
2.297

> <Valence>
7.358

> <Coulomb>
-0.022

> <VdW>
0.601

> <VdW6>
-7.363

> <VdW12>
7.964

> <Bond>
0.121

> <Angle>
2.425

> <Pdih>
4.811

> <Idih>
0.000

> <Tether>
0.000

$$$$
VeraChem MOL file


 22 21  0  0  0  0  0  0  0  0999 V2000     
   19.7018   16.3826   20.1602 C   0  0  0  0  0  0  0  0  0  0  0  0
   18.7609   16.3906   19.3912 O   0  5  0  0  0  0  0  0  0  0  0  0
   19.9026   15.4970   20.9679 O   0  0  0  0  0  0  0  0  0  0  0  0
   20.6946   17.5398   20.0938 C   0  0  0  0  0  0  0  0  0  0  0  0
   20.9256   17.7133   19.0362 H   0  0  0  0  0  0  0  0  0  0  0  0
   21.6290   17.2278   20.5758 H   0  0  0  0  0  0  0  0  0  0  0  0
   20.1752   18.8539   20.7328 C   0  0  0  0  0  0  0  0  0  0  0  0
   20.8891   19.6608   20.5188 H   0  0  0  0  0  0  0  0  0  0  0  0
   19.2252   19.1383   20.2592 H   0  0  0  0  0  0  0  0  0  0  0  0
   19.9832   18.7359   22.2615 C   0  0  0  0  0  0  0  0  0  0  0  0
   20.9321   18.4388   22.7287 H   0  0  0  0  0  0  0  0  0  0  0  0
   19.2569   17.9417   22.4831 H   0  0  0  0  0  0  0  0  0  0  0  0
   19.4962   20.0637   22.8807 C   0  0  0  0  0  0  0  0  0  0  0  0
   20.2223   20.8589   22.6629 H   0  0  0  0  0  0  0  0  0  0  0  0
   18.5472   20.3601   22.4131 H   0  0  0  0  0  0  0  0  0  0  0  0
   19.3035   19.9464   24.4072 C   0  0  0  0  0  0  0  0  0  0  0  0
   20.2512   19.6516   24.8787 H   0  0  0  0  0  0  0  0  0  0  0  0
   18.5763   19.1529   24.6288 H   0  0  0  0  0  0  0  0  0  0  0  0
   18.8165   21.2739   25.0219 C   0  0  0  0  0  0  0  0  0  0  0  0
   19.5409   22.0791   24.8422 H   0  0  0  0  0  0  0  0  0  0  0  0
   18.6849   21.1725   26.1070 H   0  0  0  0  0  0  0  0  0  0  0  0
   17.8534   21.5766   24.5905 H   0  0  0  0  0  0  0  0  0  0  0  0
  1  2  1  0  0  0  0
  1  3  2  0  0  0  0
  1  4  1  0  0  0  0
  4  5  1  0  0  0  0
  4  6  1  0  0  0  0
  4  7  1  0  0  0  0
  7  8  1  0  0  0  0
  7  9  1  0  0  0  0
  7 10  1  0  0  0  0
 10 11  1  0  0  0  0
 10 12  1  0  0  0  0
 10 13  1  0  0  0  0
 13 14  1  0  0  0  0
 13 15  1  0  0  0  0
 13 16  1  0  0  0  0
 16 17  1  0  0  0  0
 16 18  1  0  0  0  0
 16 19  1  0  0  0  0
 19 20  1  0  0  0  0
 19 21  1  0  0  0  0
 19 22  1  0  0  0  0
M  END
> <VConfSearch Rank>
990

> <Conf_Id>
44

> <Delta U+W>
-0.155

> <U+W>
-53.314

> <U>
7.937

> <W>
-61.252

> <W(PB)>
-63.556

> <W(SA)>
2.304

> <Valence>
7.358

> <Coulomb>
-0.021

> <VdW>
0.600

> <VdW6>
-7.363

> <VdW12>
7.964

> <Bond>
0.121

> <Angle>
2.425

> <Pdih>
4.811

> <Idih>
0.001

> <Tether>
0.000

$$$$
VeraChem MOL file


 22 21  0  0  0  0  0  0  0  0999 V2000     
   21.5112   15.9615   22.2245 C   0  0  0  0  0  0  0  0  0  0  0  0
   21.0136   15.1821   21.4359 O   0  5  0  0  0  0  0  0  0  0  0  0
   21.7894   15.6715   23.3714 O   0  0  0  0  0  0  0  0  0  0  0  0
   21.8204   17.3754   21.7404 C   0  0  0  0  0  0  0  0  0  0  0  0
   22.3099   17.2867   20.7634 H   0  0  0  0  0  0  0  0  0  0  0  0
   22.5514   17.8274   22.4217 H   0  0  0  0  0  0  0  0  0  0  0  0
   20.5724   18.2875   21.6127 C   0  0  0  0  0  0  0  0  0  0  0  0
   20.8723   19.2190   21.1161 H   0  0  0  0  0  0  0  0  0  0  0  0
   19.8331   17.8032   20.9599 H   0  0  0  0  0  0  0  0  0  0  0  0
   19.9303   18.6106   22.9834 C   0  0  0  0  0  0  0  0  0  0  0  0
   20.6579   19.1325   23.6198 H   0  0  0  0  0  0  0  0  0  0  0  0
   19.6878   17.6708   23.4982 H   0  0  0  0  0  0  0  0  0  0  0  0
   18.6372   19.4532   22.8754 C   0  0  0  0  0  0  0  0  0  0  0  0
   17.9100   18.9309   22.2388 H   0  0  0  0  0  0  0  0  0  0  0  0
   18.1830   19.5217   23.8734 H   0  0  0  0  0  0  0  0  0  0  0  0
   18.8736   20.8812   22.3339 C   0  0  0  0  0  0  0  0  0  0  0  0
   19.2527   20.8381   21.3045 H   0  0  0  0  0  0  0  0  0  0  0  0
   19.6411   21.3844   22.9380 H   0  0  0  0  0  0  0  0  0  0  0  0
   17.5770   21.7156   22.3553 C   0  0  0  0  0  0  0  0  0  0  0  0
   16.7997   21.2487   21.7362 H   0  0  0  0  0  0  0  0  0  0  0  0
   17.7603   22.7251   21.9650 H   0  0  0  0  0  0  0  0  0  0  0  0
   17.1888   21.8130   23.3776 H   0  0  0  0  0  0  0  0  0  0  0  0
  1  2  1  0  0  0  0
  1  3  2  0  0  0  0
  1  4  1  0  0  0  0
  4  5  1  0  0  0  0
  4  6  1  0  0  0  0
  4  7  1  0  0  0  0
  7  8  1  0  0  0  0
  7  9  1  0  0  0  0
  7 10  1  0  0  0  0
 10 11  1  0  0  0  0
 10 12  1  0  0  0  0
 10 13  1  0  0  0  0
 13 14  1  0  0  0  0
 13 15  1  0  0  0  0
 13 16  1  0  0  0  0
 16 17  1  0  0  0  0
 16 18  1  0  0  0  0
 16 19  1  0  0  0  0
 19 20  1  0  0  0  0
 19 21  1  0  0  0  0
 19 22  1  0  0  0  0
M  END
> <VConfSearch Rank>
991

> <Conf_Id>
53

> <Delta U+W>
0.723

> <U+W>
-52.436

> <U>
8.587

> <W>
-61.022

> <W(PB)>
-63.285

> <W(SA)>
2.263

> <Valence>
7.933

> <Coulomb>
-0.124

> <VdW>
0.778

> <VdW6>
-7.981

> <VdW12>
8.759

> <Bond>
0.160

> <Angle>
2.698

> <Pdih>
5.074

> <Idih>
0.001

> <Tether>
0.000

$$$$
VeraChem MOL file


 22 21  0  0  0  0  0  0  0  0999 V2000     
   17.7501   17.1809   20.3756 C   0  0  0  0  0  0  0  0  0  0  0  0
   16.7058   17.7820   20.2185 O   0  5  0  0  0  0  0  0  0  0  0  0
   18.0121   16.1316   19.8216 O   0  0  0  0  0  0  0  0  0  0  0  0
   18.7985   17.7876   21.3013 C   0  0  0  0  0  0  0  0  0  0  0  0
   19.3665   16.9678   21.7569 H   0  0  0  0  0  0  0  0  0  0  0  0
   18.2679   18.3094   22.1056 H   0  0  0  0  0  0  0  0  0  0  0  0
   19.7558   18.7606   20.5679 C   0  0  0  0  0  0  0  0  0  0  0  0
   20.1680   18.2509   19.6861 H   0  0  0  0  0  0  0  0  0  0  0  0
   19.1799   19.6155   20.1874 H   0  0  0  0  0  0  0  0  0  0  0  0
   20.9337   19.2724   21.4347 C   0  0  0  0  0  0  0  0  0  0  0  0
   21.5618   19.9086   20.7962 H   0  0  0  0  0  0  0  0  0  0  0  0
   21.5723   18.4315   21.7381 H   0  0  0  0  0  0  0  0  0  0  0  0
   20.5109   20.1009   22.6743 C   0  0  0  0  0  0  0  0  0  0  0  0
   21.2441   20.9058   22.8215 H   0  0  0  0  0  0  0  0  0  0  0  0
   19.5479   20.5956   22.4872 H   0  0  0  0  0  0  0  0  0  0  0  0
   20.4448   19.2677   23.9751 C   0  0  0  0  0  0  0  0  0  0  0  0
   21.4302   18.8265   24.1792 H   0  0  0  0  0  0  0  0  0  0  0  0
   19.7440   18.4318   23.8634 H   0  0  0  0  0  0  0  0  0  0  0  0
   20.0152   20.1311   25.1782 C   0  0  0  0  0  0  0  0  0  0  0  0
   20.7211   20.9557   25.3424 H   0  0  0  0  0  0  0  0  0  0  0  0
   19.9798   19.5275   26.0944 H   0  0  0  0  0  0  0  0  0  0  0  0
   19.0177   20.5604   25.0164 H   0  0  0  0  0  0  0  0  0  0  0  0
  1  2  1  0  0  0  0
  1  3  2  0  0  0  0
  1  4  1  0  0  0  0
  4  5  1  0  0  0  0
  4  6  1  0  0  0  0
  4  7  1  0  0  0  0
  7  8  1  0  0  0  0
  7  9  1  0  0  0  0
  7 10  1  0  0  0  0
 10 11  1  0  0  0  0
 10 12  1  0  0  0  0
 10 13  1  0  0  0  0
 13 14  1  0  0  0  0
 13 15  1  0  0  0  0
 13 16  1  0  0  0  0
 16 17  1  0  0  0  0
 16 18  1  0  0  0  0
 16 19  1  0  0  0  0
 19 20  1  0  0  0  0
 19 21  1  0  0  0  0
 19 22  1  0  0  0  0
M  END
> <VConfSearch Rank>
992

> <Conf_Id>
5

> <Delta U+W>
2.167

> <U+W>
-50.993

> <U>
10.045

> <W>
-61.037

> <W(PB)>
-63.303

> <W(SA)>
2.266

> <Valence>
10.100

> <Coulomb>
-0.883

> <VdW>
0.828

> <VdW6>
-8.177

> <VdW12>
9.005

> <Bond>
0.182

> <Angle>
2.988

> <Pdih>
6.930

> <Idih>
0.001

> <Tether>
0.000

$$$$
VeraChem MOL file


 22 21  0  0  0  0  0  0  0  0999 V2000     
   21.0635   16.0711   23.6721 C   0  0  0  0  0  0  0  0  0  0  0  0
   22.2466   16.2124   23.9106 O   0  5  0  0  0  0  0  0  0  0  0  0
   20.4660   15.0248   23.8293 O   0  0  0  0  0  0  0  0  0  0  0  0
   20.2912   17.2658   23.1242 C   0  0  0  0  0  0  0  0  0  0  0  0
   20.7198   18.1701   23.5705 H   0  0  0  0  0  0  0  0  0  0  0  0
   19.2529   17.1873   23.4677 H   0  0  0  0  0  0  0  0  0  0  0  0
   20.3393   17.3536   21.5778 C   0  0  0  0  0  0  0  0  0  0  0  0
   21.3782   17.5121   21.2572 H   0  0  0  0  0  0  0  0  0  0  0  0
   20.0336   16.3841   21.1606 H   0  0  0  0  0  0  0  0  0  0  0  0
   19.4349   18.4562   20.9721 C   0  0  0  0  0  0  0  0  0  0  0  0
   18.3812   18.2504   21.2053 H   0  0  0  0  0  0  0  0  0  0  0  0
   19.5172   18.3874   19.8788 H   0  0  0  0  0  0  0  0  0  0  0  0
   19.8067   19.9003   21.3940 C   0  0  0  0  0  0  0  0  0  0  0  0
   20.8786   19.9614   21.6269 H   0  0  0  0  0  0  0  0  0  0  0  0
   19.6422   20.5667   20.5361 H   0  0  0  0  0  0  0  0  0  0  0  0
   18.9666   20.4281   22.5800 C   0  0  0  0  0  0  0  0  0  0  0  0
   19.0775   19.7742   23.4532 H   0  0  0  0  0  0  0  0  0  0  0  0
   17.9015   20.4146   22.3105 H   0  0  0  0  0  0  0  0  0  0  0  0
   19.3750   21.8635   22.9675 C   0  0  0  0  0  0  0  0  0  0  0  0
   20.4288   21.9023   23.2732 H   0  0  0  0  0  0  0  0  0  0  0  0
   18.7655   22.2263   23.8052 H   0  0  0  0  0  0  0  0  0  0  0  0
   19.2369   22.5528   22.1242 H   0  0  0  0  0  0  0  0  0  0  0  0
  1  2  1  0  0  0  0
  1  3  2  0  0  0  0
  1  4  1  0  0  0  0
  4  5  1  0  0  0  0
  4  6  1  0  0  0  0
  4  7  1  0  0  0  0
  7  8  1  0  0  0  0
  7  9  1  0  0  0  0
  7 10  1  0  0  0  0
 10 11  1  0  0  0  0
 10 12  1  0  0  0  0
 10 13  1  0  0  0  0
 13 14  1  0  0  0  0
 13 15  1  0  0  0  0
 13 16  1  0  0  0  0
 16 17  1  0  0  0  0
 16 18  1  0  0  0  0
 16 19  1  0  0  0  0
 19 20  1  0  0  0  0
 19 21  1  0  0  0  0
 19 22  1  0  0  0  0
M  END
> <VConfSearch Rank>
993

> <Conf_Id>
6

> <Delta U+W>
2.118

> <U+W>
-51.042

> <U>
10.045

> <W>
-61.086

> <W(PB)>
-63.356

> <W(SA)>
2.270

> <Valence>
10.100

> <Coulomb>
-0.883

> <VdW>
0.828

> <VdW6>
-8.177

> <VdW12>
9.004

> <Bond>
0.182

> <Angle>
2.988

> <Pdih>
6.930

> <Idih>
0.001

> <Tether>
0.000

$$$$
VeraChem MOL file


 22 21  0  0  0  0  0  0  0  0999 V2000     
   17.1520   18.1231   23.2438 C   0  0  0  0  0  0  0  0  0  0  0  0
   16.4032   19.0598   23.0453 O   0  5  0  0  0  0  0  0  0  0  0  0
   17.4311   17.7115   24.3528 O   0  0  0  0  0  0  0  0  0  0  0  0
   17.7174   17.3780   22.0361 C   0  0  0  0  0  0  0  0  0  0  0  0
   16.8577   16.9467   21.5102 H   0  0  0  0  0  0  0  0  0  0  0  0
   18.3243   16.5354   22.3889 H   0  0  0  0  0  0  0  0  0  0  0  0
   18.5335   18.2498   21.0407 C   0  0  0  0  0  0  0  0  0  0  0  0
   18.5641   17.7246   20.0765 H   0  0  0  0  0  0  0  0  0  0  0  0
   18.0072   19.1959   20.8526 H   0  0  0  0  0  0  0  0  0  0  0  0
   19.9946   18.5313   21.4706 C   0  0  0  0  0  0  0  0  0  0  0  0
   20.5112   19.0146   20.6301 H   0  0  0  0  0  0  0  0  0  0  0  0
   20.5170   17.5814   21.6488 H   0  0  0  0  0  0  0  0  0  0  0  0
   20.1217   19.4358   22.7173 C   0  0  0  0  0  0  0  0  0  0  0  0
   19.5148   20.3412   22.5798 H   0  0  0  0  0  0  0  0  0  0  0  0
   19.7263   18.9146   23.5983 H   0  0  0  0  0  0  0  0  0  0  0  0
   21.5886   19.8324   22.9872 C   0  0  0  0  0  0  0  0  0  0  0  0
   21.9960   20.3638   22.1160 H   0  0  0  0  0  0  0  0  0  0  0  0
   22.1972   18.9277   23.1233 H   0  0  0  0  0  0  0  0  0  0  0  0
   21.7141   20.7272   24.2367 C   0  0  0  0  0  0  0  0  0  0  0  0
   21.1392   21.6545   24.1146 H   0  0  0  0  0  0  0  0  0  0  0  0
   22.7627   20.9989   24.4146 H   0  0  0  0  0  0  0  0  0  0  0  0
   21.3417   20.2083   25.1298 H   0  0  0  0  0  0  0  0  0  0  0  0
  1  2  1  0  0  0  0
  1  3  2  0  0  0  0
  1  4  1  0  0  0  0
  4  5  1  0  0  0  0
  4  6  1  0  0  0  0
  4  7  1  0  0  0  0
  7  8  1  0  0  0  0
  7  9  1  0  0  0  0
  7 10  1  0  0  0  0
 10 11  1  0  0  0  0
 10 12  1  0  0  0  0
 10 13  1  0  0  0  0
 13 14  1  0  0  0  0
 13 15  1  0  0  0  0
 13 16  1  0  0  0  0
 16 17  1  0  0  0  0
 16 18  1  0  0  0  0
 16 19  1  0  0  0  0
 19 20  1  0  0  0  0
 19 21  1  0  0  0  0
 19 22  1  0  0  0  0
M  END
> <VConfSearch Rank>
994

> <Conf_Id>
8

> <Delta U+W>
1.886

> <U+W>
-51.274

> <U>
11.237

> <W>
-62.510

> <W(PB)>
-64.777

> <W(SA)>
2.267

> <Valence>
9.029

> <Coulomb>
1.667

> <VdW>
0.540

> <VdW6>
-8.825

> <VdW12>
9.365

> <Bond>
0.186

> <Angle>
3.195

> <Pdih>
5.642

> <Idih>
0.007

> <Tether>
0.000

$$$$
VeraChem MOL file


 22 21  0  0  0  0  0  0  0  0999 V2000     
   16.9018   18.5540   21.1586 C   0  0  0  0  0  0  0  0  0  0  0  0
   16.4080   19.2334   22.0369 O   0  5  0  0  0  0  0  0  0  0  0  0
   16.4398   17.4918   20.7906 O   0  0  0  0  0  0  0  0  0  0  0  0
   18.1530   19.0754   20.4574 C   0  0  0  0  0  0  0  0  0  0  0  0
   18.2733   20.1379   20.6971 H   0  0  0  0  0  0  0  0  0  0  0  0
   17.9676   19.0213   19.3783 H   0  0  0  0  0  0  0  0  0  0  0  0
   19.4470   18.2850   20.7953 C   0  0  0  0  0  0  0  0  0  0  0  0
   19.3173   17.2440   20.4685 H   0  0  0  0  0  0  0  0  0  0  0  0
   20.2809   18.6901   20.2063 H   0  0  0  0  0  0  0  0  0  0  0  0
   19.8327   18.2901   22.2953 C   0  0  0  0  0  0  0  0  0  0  0  0
   20.6984   17.6283   22.4242 H   0  0  0  0  0  0  0  0  0  0  0  0
   19.0181   17.8537   22.8893 H   0  0  0  0  0  0  0  0  0  0  0  0
   20.1745   19.6990   22.8390 C   0  0  0  0  0  0  0  0  0  0  0  0
   20.9754   20.1468   22.2353 H   0  0  0  0  0  0  0  0  0  0  0  0
   19.2982   20.3512   22.7316 H   0  0  0  0  0  0  0  0  0  0  0  0
   20.5877   19.6985   24.3294 C   0  0  0  0  0  0  0  0  0  0  0  0
   19.7946   19.2368   24.9337 H   0  0  0  0  0  0  0  0  0  0  0  0
   20.6710   20.7395   24.6709 H   0  0  0  0  0  0  0  0  0  0  0  0
   21.9297   18.9820   24.5951 C   0  0  0  0  0  0  0  0  0  0  0  0
   21.8606   17.9078   24.3836 H   0  0  0  0  0  0  0  0  0  0  0  0
   22.2223   19.0943   25.6471 H   0  0  0  0  0  0  0  0  0  0  0  0
   22.7305   19.4051   23.9748 H   0  0  0  0  0  0  0  0  0  0  0  0
  1  2  1  0  0  0  0
  1  3  2  0  0  0  0
  1  4  1  0  0  0  0
  4  5  1  0  0  0  0
  4  6  1  0  0  0  0
  4  7  1  0  0  0  0
  7  8  1  0  0  0  0
  7  9  1  0  0  0  0
  7 10  1  0  0  0  0
 10 11  1  0  0  0  0
 10 12  1  0  0  0  0
 10 13  1  0  0  0  0
 13 14  1  0  0  0  0
 13 15  1  0  0  0  0
 13 16  1  0  0  0  0
 16 17  1  0  0  0  0
 16 18  1  0  0  0  0
 16 19  1  0  0  0  0
 19 20  1  0  0  0  0
 19 21  1  0  0  0  0
 19 22  1  0  0  0  0
M  END
> <VConfSearch Rank>
995

> <Conf_Id>
93

> <Delta U+W>
1.836

> <U+W>
-51.323

> <U>
10.427

> <W>
-61.751

> <W(PB)>
-63.980

> <W(SA)>
2.230

> <Valence>
8.446

> <Coulomb>
1.306

> <VdW>
0.676

> <VdW6>
-8.928

> <VdW12>
9.604

> <Bond>
0.209

> <Angle>
3.066

> <Pdih>
5.170

> <Idih>
0.001

> <Tether>
0.000

$$$$
VeraChem MOL file


 22 21  0  0  0  0  0  0  0  0999 V2000     
   17.5360   17.0921   23.2877 C   0  0  0  0  0  0  0  0  0  0  0  0
   17.6784   15.8860   23.3349 O   0  5  0  0  0  0  0  0  0  0  0  0
   16.7470   17.6472   22.5488 O   0  0  0  0  0  0  0  0  0  0  0  0
   18.3733   17.9524   24.2301 C   0  0  0  0  0  0  0  0  0  0  0  0
   18.2662   17.5313   25.2365 H   0  0  0  0  0  0  0  0  0  0  0  0
   17.9385   18.9575   24.2681 H   0  0  0  0  0  0  0  0  0  0  0  0
   19.8806   18.0185   23.8600 C   0  0  0  0  0  0  0  0  0  0  0  0
   20.4126   18.6076   24.6191 H   0  0  0  0  0  0  0  0  0  0  0  0
   20.2987   17.0036   23.9103 H   0  0  0  0  0  0  0  0  0  0  0  0
   20.1754   18.6079   22.4585 C   0  0  0  0  0  0  0  0  0  0  0  0
   19.6758   18.0034   21.6892 H   0  0  0  0  0  0  0  0  0  0  0  0
   21.2529   18.5161   22.2727 H   0  0  0  0  0  0  0  0  0  0  0  0
   19.7506   20.0896   22.3113 C   0  0  0  0  0  0  0  0  0  0  0  0
   18.6681   20.1739   22.4728 H   0  0  0  0  0  0  0  0  0  0  0  0
   20.2327   20.6944   23.0912 H   0  0  0  0  0  0  0  0  0  0  0  0
   20.0721   20.6854   20.9207 C   0  0  0  0  0  0  0  0  0  0  0  0
   19.6133   21.6813   20.8510 H   0  0  0  0  0  0  0  0  0  0  0  0
   19.6038   20.0731   20.1378 H   0  0  0  0  0  0  0  0  0  0  0  0
   21.5856   20.8178   20.6437 C   0  0  0  0  0  0  0  0  0  0  0  0
   22.0703   19.8357   20.5819 H   0  0  0  0  0  0  0  0  0  0  0  0
   22.0804   21.3977   21.4336 H   0  0  0  0  0  0  0  0  0  0  0  0
   21.7569   21.3324   19.6894 H   0  0  0  0  0  0  0  0  0  0  0  0
  1  2  1  0  0  0  0
  1  3  2  0  0  0  0
  1  4  1  0  0  0  0
  4  5  1  0  0  0  0
  4  6  1  0  0  0  0
  4  7  1  0  0  0  0
  7  8  1  0  0  0  0
  7  9  1  0  0  0  0
  7 10  1  0  0  0  0
 10 11  1  0  0  0  0
 10 12  1  0  0  0  0
 10 13  1  0  0  0  0
 13 14  1  0  0  0  0
 13 15  1  0  0  0  0
 13 16  1  0  0  0  0
 16 17  1  0  0  0  0
 16 18  1  0  0  0  0
 16 19  1  0  0  0  0
 19 20  1  0  0  0  0
 19 21  1  0  0  0  0
 19 22  1  0  0  0  0
M  END
> <VConfSearch Rank>
996

> <Conf_Id>
70

> <Delta U+W>
1.803

> <U+W>
-51.356

> <U>
10.428

> <W>
-61.784

> <W(PB)>
-64.014

> <W(SA)>
2.230

> <Valence>
8.445

> <Coulomb>
1.306

> <VdW>
0.676

> <VdW6>
-8.929

> <VdW12>
9.605

> <Bond>
0.209

> <Angle>
3.066

> <Pdih>
5.170

> <Idih>
0.001

> <Tether>
0.000

$$$$
VeraChem MOL file


 22 21  0  0  0  0  0  0  0  0999 V2000     
   18.8807   17.1633   19.7457 C   0  0  0  0  0  0  0  0  0  0  0  0
   19.8759   16.4950   19.5462 O   0  5  0  0  0  0  0  0  0  0  0  0
   18.3774   17.8864   18.9085 O   0  0  0  0  0  0  0  0  0  0  0  0
   18.2161   17.0720   21.1165 C   0  0  0  0  0  0  0  0  0  0  0  0
   18.1685   16.0110   21.3883 H   0  0  0  0  0  0  0  0  0  0  0  0
   17.1811   17.4236   21.0279 H   0  0  0  0  0  0  0  0  0  0  0  0
   18.9567   17.8589   22.2289 C   0  0  0  0  0  0  0  0  0  0  0  0
   18.4899   17.6329   23.1970 H   0  0  0  0  0  0  0  0  0  0  0  0
   19.9940   17.5033   22.2853 H   0  0  0  0  0  0  0  0  0  0  0  0
   18.9273   19.3878   21.9920 C   0  0  0  0  0  0  0  0  0  0  0  0
   17.8856   19.7071   21.8514 H   0  0  0  0  0  0  0  0  0  0  0  0
   19.4537   19.6312   21.0588 H   0  0  0  0  0  0  0  0  0  0  0  0
   19.5382   20.2034   23.1560 C   0  0  0  0  0  0  0  0  0  0  0  0
   19.3649   21.2707   22.9616 H   0  0  0  0  0  0  0  0  0  0  0  0
   19.0083   19.9677   24.0890 H   0  0  0  0  0  0  0  0  0  0  0  0
   21.0540   19.9677   23.3437 C   0  0  0  0  0  0  0  0  0  0  0  0
   21.5777   20.1525   22.3956 H   0  0  0  0  0  0  0  0  0  0  0  0
   21.2433   18.9211   23.6156 H   0  0  0  0  0  0  0  0  0  0  0  0
   21.6375   20.8837   24.4383 C   0  0  0  0  0  0  0  0  0  0  0  0
   21.5000   21.9419   24.1801 H   0  0  0  0  0  0  0  0  0  0  0  0
   22.7131   20.7022   24.5616 H   0  0  0  0  0  0  0  0  0  0  0  0
   21.1497   20.7002   25.4046 H   0  0  0  0  0  0  0  0  0  0  0  0
  1  2  1  0  0  0  0
  1  3  2  0  0  0  0
  1  4  1  0  0  0  0
  4  5  1  0  0  0  0
  4  6  1  0  0  0  0
  4  7  1  0  0  0  0
  7  8  1  0  0  0  0
  7  9  1  0  0  0  0
  7 10  1  0  0  0  0
 10 11  1  0  0  0  0
 10 12  1  0  0  0  0
 10 13  1  0  0  0  0
 13 14  1  0  0  0  0
 13 15  1  0  0  0  0
 13 16  1  0  0  0  0
 16 17  1  0  0  0  0
 16 18  1  0  0  0  0
 16 19  1  0  0  0  0
 19 20  1  0  0  0  0
 19 21  1  0  0  0  0
 19 22  1  0  0  0  0
M  END
> <VConfSearch Rank>
997

> <Conf_Id>
85

> <Delta U+W>
0.707

> <U+W>
-52.452

> <U>
8.925

> <W>
-61.378

> <W(PB)>
-63.661

> <W(SA)>
2.283

> <Valence>
7.881

> <Coulomb>
0.349

> <VdW>
0.695

> <VdW6>
-8.049

> <VdW12>
8.743

> <Bond>
0.156

> <Angle>
2.660

> <Pdih>
5.064

> <Idih>
0.001

> <Tether>
0.000

$$$$
VeraChem MOL file


 22 21  0  0  0  0  0  0  0  0999 V2000     
   21.3978   17.9528   19.5673 C   0  0  0  0  0  0  0  0  0  0  0  0
   21.9971   16.9026   19.6886 O   0  5  0  0  0  0  0  0  0  0  0  0
   20.6625   18.2030   18.6326 O   0  0  0  0  0  0  0  0  0  0  0  0
   21.5961   19.0264   20.6339 C   0  0  0  0  0  0  0  0  0  0  0  0
   21.7677   19.9760   20.1136 H   0  0  0  0  0  0  0  0  0  0  0  0
   22.5122   18.8007   21.1930 H   0  0  0  0  0  0  0  0  0  0  0  0
   20.3986   19.1799   21.6077 C   0  0  0  0  0  0  0  0  0  0  0  0
   20.5688   20.0696   22.2269 H   0  0  0  0  0  0  0  0  0  0  0  0
   19.4802   19.3587   21.0316 H   0  0  0  0  0  0  0  0  0  0  0  0
   20.2142   17.9475   22.5232 C   0  0  0  0  0  0  0  0  0  0  0  0
   21.1036   17.8274   23.1567 H   0  0  0  0  0  0  0  0  0  0  0  0
   20.1555   17.0427   21.9028 H   0  0  0  0  0  0  0  0  0  0  0  0
   18.9491   18.0017   23.4159 C   0  0  0  0  0  0  0  0  0  0  0  0
   18.0471   18.0281   22.7893 H   0  0  0  0  0  0  0  0  0  0  0  0
   18.8976   17.0558   23.9724 H   0  0  0  0  0  0  0  0  0  0  0  0
   18.9260   19.1643   24.4395 C   0  0  0  0  0  0  0  0  0  0  0  0
   19.9506   19.4552   24.7093 H   0  0  0  0  0  0  0  0  0  0  0  0
   18.4563   18.8069   25.3662 H   0  0  0  0  0  0  0  0  0  0  0  0
   18.1319   20.3943   23.9460 C   0  0  0  0  0  0  0  0  0  0  0  0
   18.5574   20.8136   23.0273 H   0  0  0  0  0  0  0  0  0  0  0  0
   18.1353   21.1843   24.7081 H   0  0  0  0  0  0  0  0  0  0  0  0
   17.0863   20.1279   23.7437 H   0  0  0  0  0  0  0  0  0  0  0  0
  1  2  1  0  0  0  0
  1  3  2  0  0  0  0
  1  4  1  0  0  0  0
  4  5  1  0  0  0  0
  4  6  1  0  0  0  0
  4  7  1  0  0  0  0
  7  8  1  0  0  0  0
  7  9  1  0  0  0  0
  7 10  1  0  0  0  0
 10 11  1  0  0  0  0
 10 12  1  0  0  0  0
 10 13  1  0  0  0  0
 13 14  1  0  0  0  0
 13 15  1  0  0  0  0
 13 16  1  0  0  0  0
 16 17  1  0  0  0  0
 16 18  1  0  0  0  0
 16 19  1  0  0  0  0
 19 20  1  0  0  0  0
 19 21  1  0  0  0  0
 19 22  1  0  0  0  0
M  END
> <VConfSearch Rank>
998

> <Conf_Id>
82

> <Delta U+W>
3.438

> <U+W>
-49.721

> <U>
11.773

> <W>
-61.495

> <W(PB)>
-63.749

> <W(SA)>
2.254

> <Valence>
10.419

> <Coulomb>
0.565

> <VdW>
0.789

> <VdW6>
-8.847

> <VdW12>
9.636

> <Bond>
0.200

> <Angle>
3.187

> <Pdih>
7.032

> <Idih>
0.001

> <Tether>
0.000

$$$$
VeraChem MOL file


 22 21  0  0  0  0  0  0  0  0999 V2000     
   18.6142   18.3723   19.3599 C   0  0  0  0  0  0  0  0  0  0  0  0
   19.4754   18.5823   18.5285 O   0  5  0  0  0  0  0  0  0  0  0  0
   17.8786   17.4052   19.3360 O   0  0  0  0  0  0  0  0  0  0  0  0
   18.4329   19.3918   20.4811 C   0  0  0  0  0  0  0  0  0  0  0  0
   17.4387   19.2541   20.9233 H   0  0  0  0  0  0  0  0  0  0  0  0
   18.4407   20.3873   20.0218 H   0  0  0  0  0  0  0  0  0  0  0  0
   19.5230   19.3222   21.5823 C   0  0  0  0  0  0  0  0  0  0  0  0
   20.5155   19.4143   21.1199 H   0  0  0  0  0  0  0  0  0  0  0  0
   19.3966   20.1848   22.2484 H   0  0  0  0  0  0  0  0  0  0  0  0
   19.4479   18.0199   22.4125 C   0  0  0  0  0  0  0  0  0  0  0  0
   19.4626   17.1571   21.7326 H   0  0  0  0  0  0  0  0  0  0  0  0
   18.4850   17.9782   22.9396 H   0  0  0  0  0  0  0  0  0  0  0  0
   20.6014   17.8482   23.4325 C   0  0  0  0  0  0  0  0  0  0  0  0
   20.4715   16.8701   23.9156 H   0  0  0  0  0  0  0  0  0  0  0  0
   21.5644   17.7951   22.9064 H   0  0  0  0  0  0  0  0  0  0  0  0
   20.6542   18.9292   24.5409 C   0  0  0  0  0  0  0  0  0  0  0  0
   20.9685   18.4537   25.4803 H   0  0  0  0  0  0  0  0  0  0  0  0
   19.6502   19.3354   24.7255 H   0  0  0  0  0  0  0  0  0  0  0  0
   21.6462   20.0722   24.2300 C   0  0  0  0  0  0  0  0  0  0  0  0
   22.6663   19.6830   24.1163 H   0  0  0  0  0  0  0  0  0  0  0  0
   21.6558   20.8050   25.0471 H   0  0  0  0  0  0  0  0  0  0  0  0
   21.3824   20.6025   23.3079 H   0  0  0  0  0  0  0  0  0  0  0  0
  1  2  1  0  0  0  0
  1  3  2  0  0  0  0
  1  4  1  0  0  0  0
  4  5  1  0  0  0  0
  4  6  1  0  0  0  0
  4  7  1  0  0  0  0
  7  8  1  0  0  0  0
  7  9  1  0  0  0  0
  7 10  1  0  0  0  0
 10 11  1  0  0  0  0
 10 12  1  0  0  0  0
 10 13  1  0  0  0  0
 13 14  1  0  0  0  0
 13 15  1  0  0  0  0
 13 16  1  0  0  0  0
 16 17  1  0  0  0  0
 16 18  1  0  0  0  0
 16 19  1  0  0  0  0
 19 20  1  0  0  0  0
 19 21  1  0  0  0  0
 19 22  1  0  0  0  0
M  END
> <VConfSearch Rank>
999

> <Conf_Id>
94

> <Delta U+W>
3.471

> <U+W>
-49.688

> <U>
11.773

> <W>
-61.461

> <W(PB)>
-63.710

> <W(SA)>
2.248

> <Valence>
10.419

> <Coulomb>
0.566

> <VdW>
0.789

> <VdW6>
-8.847

> <VdW12>
9.636

> <Bond>
0.200

> <Angle>
3.187

> <Pdih>
7.032

> <Idih>
0.001

> <Tether>
0.000

$$$$
VeraChem MOL file


 22 21  0  0  0  0  0  0  0  0999 V2000     
   20.2153   21.7531   20.4296 C   0  0  0  0  0  0  0  0  0  0  0  0
   20.7850   21.9127   19.3682 O   0  5  0  0  0  0  0  0  0  0  0  0
   20.0802   22.6307   21.2591 O   0  0  0  0  0  0  0  0  0  0  0  0
   19.6566   20.3704   20.7457 C   0  0  0  0  0  0  0  0  0  0  0  0
   19.3388   19.9074   19.8040 H   0  0  0  0  0  0  0  0  0  0  0  0
   18.7600   20.5055   21.3613 H   0  0  0  0  0  0  0  0  0  0  0  0
   20.6817   19.4600   21.4702 C   0  0  0  0  0  0  0  0  0  0  0  0
   21.5988   19.4115   20.8670 H   0  0  0  0  0  0  0  0  0  0  0  0
   20.9704   19.9189   22.4251 H   0  0  0  0  0  0  0  0  0  0  0  0
   20.1688   18.0172   21.7061 C   0  0  0  0  0  0  0  0  0  0  0  0
   20.9690   17.4278   22.1728 H   0  0  0  0  0  0  0  0  0  0  0  0
   19.9808   17.5444   20.7327 H   0  0  0  0  0  0  0  0  0  0  0  0
   18.8827   17.9060   22.5667 C   0  0  0  0  0  0  0  0  0  0  0  0
   18.0414   18.3552   22.0230 H   0  0  0  0  0  0  0  0  0  0  0  0
   18.6285   16.8435   22.6802 H   0  0  0  0  0  0  0  0  0  0  0  0
   18.9726   18.5497   23.9723 C   0  0  0  0  0  0  0  0  0  0  0  0
   18.0022   18.4327   24.4738 H   0  0  0  0  0  0  0  0  0  0  0  0
   19.1399   19.6314   23.8829 H   0  0  0  0  0  0  0  0  0  0  0  0
   20.0696   17.9241   24.8605 C   0  0  0  0  0  0  0  0  0  0  0  0
   19.9308   16.8389   24.9502 H   0  0  0  0  0  0  0  0  0  0  0  0
   20.0385   18.3542   25.8699 H   0  0  0  0  0  0  0  0  0  0  0  0
   21.0697   18.1109   24.4496 H   0  0  0  0  0  0  0  0  0  0  0  0
  1  2  1  0  0  0  0
  1  3  2  0  0  0  0
  1  4  1  0  0  0  0
  4  5  1  0  0  0  0
  4  6  1  0  0  0  0
  4  7  1  0  0  0  0
  7  8  1  0  0  0  0
  7  9  1  0  0  0  0
  7 10  1  0  0  0  0
 10 11  1  0  0  0  0
 10 12  1  0  0  0  0
 10 13  1  0  0  0  0
 13 14  1  0  0  0  0
 13 15  1  0  0  0  0
 13 16  1  0  0  0  0
 16 17  1  0  0  0  0
 16 18  1  0  0  0  0
 16 19  1  0  0  0  0
 19 20  1  0  0  0  0
 19 21  1  0  0  0  0
 19 22  1  0  0  0  0
M  END
> <VConfSearch Rank>
1000

> <Conf_Id>
56

> <Delta U+W>
0.853

> <U+W>
-52.307

> <U>
8.874

> <W>
-61.181

> <W(PB)>
-63.413

> <W(SA)>
2.232

> <Valence>
8.479

> <Coulomb>
-0.357

> <VdW>
0.753

> <VdW6>
-9.081

> <VdW12>
9.833

> <Bond>
0.221

> <Angle>
3.208

> <Pdih>
5.050

> <Idih>
0.000

> <Tether>
0.000

$$$$
