@<TRIPOS>MOLECULE
CD_guest-s16_vm2_single.mol2 : vm2 host+ligand conformer 1
         139         145           2
SMALL
USER_CHARGES
 
@<TRIPOS>ATOM
       1    C1      16.253313   15.058986   20.609142 C.3        1 MOL1         0.2972
       2    H1      15.189155   14.948144   20.363895 H          1 MOL1         0.0751
       3    O1      16.603781   16.442367   20.833294 O.3        1 MOL1        -0.3740
       4    C2      16.639045   14.199378   21.841182 C.3        1 MOL1         0.1003
       5    H2      16.465994   13.151606   21.562580 H          1 MOL1         0.0783
       6    O2      15.838245   14.506021   22.991922 O.3        1 MOL1        -0.5519
       7    H3      16.062777   15.434033   23.255861 H          1 MOL1         0.3769
       8    C3      18.142162   14.357201   22.175326 C.3        1 MOL1         0.1053
       9    H4      18.299349   15.380259   22.545202 H          1 MOL1         0.0783
      10    O3      18.475968   13.409427   23.196037 O.3        1 MOL1        -0.5519
      11    H5      17.703960   13.411680   23.807219 H          1 MOL1         0.3769
      12    C4      19.048847   14.154735   20.926254 C.3        1 MOL1         0.1018
      13    H6      19.167610   13.081559   20.726086 H          1 MOL1         0.0783
      14    C5      18.484425   14.837128   19.649611 C.3        1 MOL1         0.1043
      15    H7      18.656239   15.914998   19.722973 H          1 MOL1         0.0783
      16    O4      17.065232   14.575717   19.520072 O.3        1 MOL1        -0.3740
      17    C6      19.176541   14.348221   18.363521 C.3        1 MOL1         0.0138
      18    H8      18.959989   13.282161   18.212728 H          1 MOL1         0.0794
      19    H9      20.263853   14.459155   18.474098 H          1 MOL1         0.0794
      20    O5      18.716333   15.121614   17.253582 O.3        1 MOL1        -0.5486
      21    H10     17.739529   15.007770   17.228700 H          1 MOL1         0.3769
      22    C7      15.050180   20.154654   21.832551 C.3        1 MOL1         0.2972
      23    H11     14.423986   20.991059   22.168144 H          1 MOL1         0.0751
      24    O6      16.227501   20.616337   21.140256 O.3        1 MOL1        -0.3740
      25    C8      15.484528   19.284818   23.041246 C.3        1 MOL1         0.1003
      26    H12     14.566950   18.906153   23.510174 H          1 MOL1         0.0783
      27    O7      16.225076   20.046528   24.008718 O.3        1 MOL1        -0.5519
      28    H13     16.029663   20.999799   23.840380 H          1 MOL1         0.3769
      29    C9      16.322029   18.071249   22.575021 C.3        1 MOL1         0.1053
      30    H14     17.276972   18.447383   22.182330 H          1 MOL1         0.0783
      31    O8      16.560726   17.217941   23.698629 O.3        1 MOL1        -0.5519
      32    H15     16.869009   17.826134   24.407945 H          1 MOL1         0.3769
      33    C10     15.608377   17.284338   21.446217 C.3        1 MOL1         0.1018
      34    H16     14.789231   16.699918   21.885419 H          1 MOL1         0.0783
      35    C11     15.050513   18.217340   20.335189 C.3        1 MOL1         0.1043
      36    H17     15.897395   18.619115   19.763304 H          1 MOL1         0.0783
      37    O9      14.305097   19.307476   20.931820 O.3        1 MOL1        -0.3740
      38    C12     14.115856   17.495656   19.338871 C.3        1 MOL1         0.0138
      39    H18     14.694127   16.742032   18.788027 H          1 MOL1         0.0794
      40    H19     13.750135   18.226490   18.605122 H          1 MOL1         0.0794
      41    O10     13.016786   16.876793   20.013861 O.3        1 MOL1        -0.5486
      42    H20     12.554712   17.593756   20.502804 H          1 MOL1         0.3769
      43    C13     18.463649   24.051702   20.687659 C.3        1 MOL1         0.2972
      44    H21     18.883295   25.039921   20.458968 H          1 MOL1         0.0751
      45    O11     19.499961   23.096744   21.002228 O.3        1 MOL1        -0.3740
      46    C14     17.442749   24.129317   21.853043 C.3        1 MOL1         0.1003
      47    H22     16.608394   24.752965   21.506221 H          1 MOL1         0.0783
      48    O12     18.005144   24.730482   23.028313 O.3        1 MOL1        -0.5519
      49    H23     18.732905   24.133760   23.336977 H          1 MOL1         0.3769
      50    C15     16.880670   22.722943   22.172614 C.3        1 MOL1         0.1053
      51    H24     17.705774   22.105782   22.555459 H          1 MOL1         0.0783
      52    O13     15.865210   22.850026   23.174722 O.3        1 MOL1        -0.5519
      53    H25     16.204280   23.536838   23.793379 H          1 MOL1         0.3769
      54    C16     16.314272   22.035483   20.896675 C.3        1 MOL1         0.1018
      55    H26     15.330608   22.459113   20.654200 H          1 MOL1         0.0783
      56    C17     17.247606   22.190285   19.664053 C.3        1 MOL1         0.1043
      57    H27     18.094164   21.508383   19.796478 H          1 MOL1         0.0783
      58    O14     17.736879   23.550236   19.547238 O.3        1 MOL1        -0.3740
      59    C18     16.554970   21.819887   18.334214 C.3        1 MOL1         0.0138
      60    H28     16.199179   20.782529   18.391914 H          1 MOL1         0.0794
      61    H29     17.295512   21.869856   17.524769 H          1 MOL1         0.0794
      62    O15     15.462154   22.701959   18.061885 O.3        1 MOL1        -0.5486
      63    H30     15.830966   23.612598   18.101470 H          1 MOL1         0.3769
      64    C19     23.451821   22.691327   22.162585 C.3        1 MOL1         0.2972
      65    H31     24.481484   22.822935   22.519429 H          1 MOL1         0.0751
      66    O16     23.264772   21.405171   21.539757 O.3        1 MOL1        -0.3740
      67    C20     22.450122   22.841153   23.337286 C.3        1 MOL1         0.1003
      68    H32     22.570719   23.857662   23.734018 H          1 MOL1         0.0783
      69    O17     22.710988   21.896877   24.387879 O.3        1 MOL1        -0.5519
      70    H33     23.533849   21.406471   24.144246 H          1 MOL1         0.3769
      71    C21     20.991677   22.691584   22.846646 C.3        1 MOL1         0.1053
      72    H34     20.845151   21.649845   22.538514 H          1 MOL1         0.0783
      73    O18     20.109591   22.996737   23.930399 O.3        1 MOL1        -0.5519
      74    H35     20.474555   22.493538   24.693301 H          1 MOL1         0.3769
      75    C22     20.693555   23.607075   21.630490 C.3        1 MOL1         0.1018
      76    H36     20.560407   24.636333   21.989241 H          1 MOL1         0.0783
      77    C23     21.820047   23.564023   20.558585 C.3        1 MOL1         0.1043
      78    H37     21.762354   22.598117   20.038798 H          1 MOL1         0.0783
      79    O19     23.120866   23.702395   21.186656 O.3        1 MOL1        -0.3740
      80    C24     21.690076   24.672924   19.490945 C.3        1 MOL1         0.0138
      81    H38     20.760946   24.518391   18.926349 H          1 MOL1         0.0794
      82    H39     22.522757   24.579166   18.781029 H          1 MOL1         0.0794
      83    O20     21.692294   25.971678   20.090677 O.3        1 MOL1        -0.5486
      84    H40     22.529964   26.037845   20.601137 H          1 MOL1         0.3769
      85    C25     25.088284   17.738057   21.010755 C.3        1 MOL1         0.2972
      86    H41     25.751118   16.890841   20.792339 H          1 MOL1         0.0751
      87    O21     23.712869   17.312922   21.126967 O.3        1 MOL1        -0.3740
      88    C26     25.537206   18.484189   22.296605 C.3        1 MOL1         0.1003
      89    H42     26.540646   18.882628   22.097490 H          1 MOL1         0.0783
      90    O22     25.609083   17.615903   23.436693 O.3        1 MOL1        -0.5519
      91    H43     24.682183   17.326708   23.632034 H          1 MOL1         0.3769
      92    C27     24.603344   19.683431   22.587918 C.3        1 MOL1         0.1053
      93    H44     23.612181   19.288100   22.851374 H          1 MOL1         0.0783
      94    O23     25.138999   20.431098   23.684795 O.3        1 MOL1        -0.5519
      95    H45     25.456818   19.753688   24.324316 H          1 MOL1         0.3769
      96    C28     24.442242   20.597987   21.343542 C.3        1 MOL1         0.1018
      97    H46     25.340532   21.217960   21.221704 H          1 MOL1         0.0783
      98    C29     24.209782   19.800934   20.031151 C.3        1 MOL1         0.1043
      99    H47     23.182384   19.416015   20.026246 H          1 MOL1         0.0783
     100    O24     25.154686   18.704365   19.941151 O.3        1 MOL1        -0.3740
     101    C30     24.402759   20.689888   18.784965 C.3        1 MOL1         0.0138
     102    H48     25.444472   21.035185   18.744420 H          1 MOL1         0.0794
     103    H49     23.759701   21.576135   18.869393 H          1 MOL1         0.0794
     104    O25     24.071918   19.958300   17.603713 O.3        1 MOL1        -0.5486
     105    H50     24.552924   19.103379   17.669197 H          1 MOL1         0.3769
     106    C31     21.288711   14.033678   21.942556 C.3        1 MOL1         0.2972
     107    H51     20.887149   13.059139   22.248370 H          1 MOL1         0.0751
     108    O26     20.324192   14.785522   21.176940 O.3        1 MOL1        -0.3740
     109    C32     21.731016   14.853437   23.186130 C.3        1 MOL1         0.1003
     110    H52     22.506611   14.265123   23.693715 H          1 MOL1         0.0783
     111    O27     20.651043   15.085124   24.103732 O.3        1 MOL1        -0.5519
     112    H53     19.951321   14.417261   23.906596 H          1 MOL1         0.3769
     113    C33     22.354893   16.204554   22.770946 C.3        1 MOL1         0.1053
     114    H54     21.561239   16.824703   22.334011 H          1 MOL1         0.0783
     115    O28     22.879992   16.842348   23.939176 O.3        1 MOL1        -0.5519
     116    H55     22.158299   16.764466   24.603792 H          1 MOL1         0.3769
     117    C34     23.469366   16.016818   21.710935 C.3        1 MOL1         0.1018
     118    H56     24.363280   15.616049   22.206523 H          1 MOL1         0.0783
     119    C35     23.036546   15.060589   20.563142 C.3        1 MOL1         0.1043
     120    H57     22.290773   15.575337   19.943363 H          1 MOL1         0.0783
     121    O29     22.458012   13.849815   21.114687 O.3        1 MOL1        -0.3740
     122    C36     24.203406   14.647904   19.638529 C.3        1 MOL1         0.0138
     123    H58     24.582066   15.539779   19.121783 H          1 MOL1         0.0794
     124    H59     23.819920   13.963809   18.869705 H          1 MOL1         0.0794
     125    O30     25.256015   14.023201   20.379103 O.3        1 MOL1        -0.5486
     126    H60     24.851725   13.251979   20.835568 H          1 MOL1         0.3769
     127    C1      20.262854   19.637840   20.576425 C.3        1 MOL1        -0.1693
     128    H1      19.362107   20.029203   21.066549 H          1 MOL1         0.0829
     129    H2      21.137001   19.921990   21.169050 H          1 MOL1         0.0829
     130    C2      20.353063   19.904559   19.038435 C.3        1 MOL1        -0.1768
     131    H3      19.908718   20.835979   18.675063 H          1 MOL1         0.0829
     132    H4      21.359213   19.814652   18.612422 H          1 MOL1         0.0829
     133    C3      19.481594   18.620870   18.883694 C.3        1 MOL1         0.1211
     134    H5      18.403468   18.794943   19.000123 H          1 MOL1         0.0786
     135    C4      20.188361   18.129948   20.183831 C.3        1 MOL1        -0.1768
     136    H6      21.160668   17.653212   20.016025 H          1 MOL1         0.0829
     137    H7      19.596157   17.504957   20.859415 H          1 MOL1         0.0829
     138    O1      19.752085   17.876365   17.716830 O.3        1 MOL1        -0.5515
     139    H8      19.310872   16.997498   17.778220 H          1 MOL1         0.3773
@<TRIPOS>BOND
    1     1     2    1
    2     1     3    1
    3     1     4    1
    4     4     5    1
    5     4     6    1
    6     6     7    1
    7     4     8    1
    8     8     9    1
    9     8    10    1
   10    10    11    1
   11     8    12    1
   12    12    13    1
   13    12    14    1
   14    14    15    1
   15     1    16    1
   16    14    16    1
   17    14    17    1
   18    17    18    1
   19    17    19    1
   20    17    20    1
   21    20    21    1
   22    22    23    1
   23    22    24    1
   24    22    25    1
   25    25    26    1
   26    25    27    1
   27    27    28    1
   28    25    29    1
   29    29    30    1
   30    29    31    1
   31    31    32    1
   32     3    33    1
   33    29    33    1
   34    33    34    1
   35    33    35    1
   36    35    36    1
   37    22    37    1
   38    35    37    1
   39    35    38    1
   40    38    39    1
   41    38    40    1
   42    38    41    1
   43    41    42    1
   44    43    44    1
   45    43    45    1
   46    43    46    1
   47    46    47    1
   48    46    48    1
   49    48    49    1
   50    46    50    1
   51    50    51    1
   52    50    52    1
   53    52    53    1
   54    24    54    1
   55    50    54    1
   56    54    55    1
   57    54    56    1
   58    56    57    1
   59    43    58    1
   60    56    58    1
   61    56    59    1
   62    59    60    1
   63    59    61    1
   64    59    62    1
   65    62    63    1
   66    64    65    1
   67    64    66    1
   68    64    67    1
   69    67    68    1
   70    67    69    1
   71    69    70    1
   72    67    71    1
   73    71    72    1
   74    71    73    1
   75    73    74    1
   76    45    75    1
   77    71    75    1
   78    75    76    1
   79    75    77    1
   80    77    78    1
   81    64    79    1
   82    77    79    1
   83    77    80    1
   84    80    81    1
   85    80    82    1
   86    80    83    1
   87    83    84    1
   88    85    86    1
   89    85    87    1
   90    85    88    1
   91    88    89    1
   92    88    90    1
   93    90    91    1
   94    88    92    1
   95    92    93    1
   96    92    94    1
   97    94    95    1
   98    66    96    1
   99    92    96    1
  100    96    97    1
  101    96    98    1
  102    98    99    1
  103    85   100    1
  104    98   100    1
  105    98   101    1
  106   101   102    1
  107   101   103    1
  108   101   104    1
  109   104   105    1
  110   106   107    1
  111    12   108    1
  112   106   108    1
  113   106   109    1
  114   109   110    1
  115   109   111    1
  116   111   112    1
  117   109   113    1
  118   113   114    1
  119   113   115    1
  120   115   116    1
  121    87   117    1
  122   113   117    1
  123   117   118    1
  124   117   119    1
  125   119   120    1
  126   106   121    1
  127   119   121    1
  128   119   122    1
  129   122   123    1
  130   122   124    1
  131   122   125    1
  132   125   126    1
  133   127   128    1
  134   127   129    1
  135   127   130    1
  136   130   131    1
  137   130   132    1
  138   130   133    1
  139   133   134    1
  140   127   135    1
  141   133   135    1
  142   135   136    1
  143   135   137    1
  144   133   138    1
  145   138   139    1
@<TRIPOS>SUBSTRUCTURE
       1 MOL1            1 RESIDUE      1      MOL     
       2 MOL1          139 RESIDUE      1      MOL     
@<SCITEGIC>MOL_PROPERTY
VM2 Rank
SciTegic.value.IntegerValue
1

@<SCITEGIC>MOL_PROPERTY
Conf_Id
SciTegic.value.IntegerValue
22705

@<SCITEGIC>MOL_PROPERTY
Probability
SciTegic.value.DoubleValue
1.56

@<SCITEGIC>MOL_PROPERTY
Sum Probability
SciTegic.value.DoubleValue
1.56

@<SCITEGIC>MOL_PROPERTY
Delta G
SciTegic.value.DoubleValue
0.000

@<SCITEGIC>MOL_PROPERTY
G
SciTegic.value.DoubleValue
538.064

@<SCITEGIC>MOL_PROPERTY
E
SciTegic.value.DoubleValue
358.998

@<SCITEGIC>MOL_PROPERTY
-TS
SciTegic.value.DoubleValue
179.066

@<SCITEGIC>MOL_PROPERTY
U+W
SciTegic.value.DoubleValue
236.487

@<SCITEGIC>MOL_PROPERTY
U
SciTegic.value.DoubleValue
269.508

@<SCITEGIC>MOL_PROPERTY
W
SciTegic.value.DoubleValue
-33.021

@<SCITEGIC>MOL_PROPERTY
W(PB)
SciTegic.value.DoubleValue
-39.059

@<SCITEGIC>MOL_PROPERTY
W(SA)
SciTegic.value.DoubleValue
6.038

@<SCITEGIC>MOL_PROPERTY
Valence
SciTegic.value.DoubleValue
149.681

@<SCITEGIC>MOL_PROPERTY
Coulomb
SciTegic.value.DoubleValue
136.853

@<SCITEGIC>MOL_PROPERTY
VdW
SciTegic.value.DoubleValue
-17.026

@<SCITEGIC>MOL_PROPERTY
VdW6
SciTegic.value.DoubleValue
-163.960

@<SCITEGIC>MOL_PROPERTY
VdW12
SciTegic.value.DoubleValue
146.934

@<SCITEGIC>MOL_PROPERTY
Bond
SciTegic.value.DoubleValue
4.599

@<SCITEGIC>MOL_PROPERTY
Angle
SciTegic.value.DoubleValue
11.338

@<SCITEGIC>MOL_PROPERTY
Pdih
SciTegic.value.DoubleValue
133.745

@<SCITEGIC>MOL_PROPERTY
Idih
SciTegic.value.DoubleValue
0.000

@<SCITEGIC>MOL_PROPERTY
Tether
SciTegic.value.DoubleValue
0.000

