@<TRIPOS>MOLECULE
CD_guest-7_vm2_single.mol2 : vm2 host+ligand conformer 1
         145         150           2
SMALL
USER_CHARGES
 
@<TRIPOS>ATOM
       1    C1      16.356682   15.232101   21.759736 C.3        1 MOL1         0.2972
       2    H1      15.297693   15.083813   22.006050 H          1 MOL1         0.0751
       3    O1      16.607995   16.566949   21.273193 O.3        1 MOL1        -0.3740
       4    C2      17.240152   14.963298   23.003663 C.3        1 MOL1         0.1003
       5    H2      17.088156   13.913845   23.287877 H          1 MOL1         0.0783
       6    O2      16.880657   15.797632   24.111817 O.3        1 MOL1        -0.5519
       7    H3      17.640168   15.716275   24.732705 H          1 MOL1         0.3769
       8    C3      18.736794   15.144385   22.668220 C.3        1 MOL1         0.1053
       9    H4      18.917844   16.202276   22.434554 H          1 MOL1         0.0783
      10    O3      19.510241   14.749990   23.806934 O.3        1 MOL1        -0.5519
      11    H5      20.350652   14.366178   23.461470 H          1 MOL1         0.3769
      12    C4      19.139001   14.302506   21.430998 C.3        1 MOL1         0.1018
      13    H6      19.212159   13.247810   21.729004 H          1 MOL1         0.0783
      14    C5      18.129914   14.456225   20.256872 C.3        1 MOL1         0.1043
      15    H7      18.255099   15.458434   19.826963 H          1 MOL1         0.0783
      16    O4      16.769051   14.300874   20.735602 O.3        1 MOL1        -0.3740
      17    C6      18.350687   13.431955   19.121725 C.3        1 MOL1         0.0138
      18    H8      19.334725   13.608241   18.667270 H          1 MOL1         0.0794
      19    H9      17.596220   13.601130   18.341828 H          1 MOL1         0.0794
      20    O5      18.266527   12.090507   19.611728 O.3        1 MOL1        -0.5486
      21    H10     17.380960   12.005582   20.030190 H          1 MOL1         0.3769
      22    C7      14.674896   20.247167   21.002565 C.3        1 MOL1         0.2972
      23    H11     13.968542   21.063986   20.807074 H          1 MOL1         0.0751
      24    O6      15.973334   20.738759   21.384119 O.3        1 MOL1        -0.3740
      25    C8      14.156332   19.334100   22.140953 C.3        1 MOL1         0.1003
      26    H12     13.190816   18.923562   21.817950 H          1 MOL1         0.0783
      27    O7      13.973483   20.069725   23.359041 O.3        1 MOL1        -0.5519
      28    H13     13.778927   19.382696   24.035608 H          1 MOL1         0.3769
      29    C9      15.121652   18.148839   22.385601 C.3        1 MOL1         0.1053
      30    H14     16.057777   18.550861   22.798097 H          1 MOL1         0.0783
      31    O8      14.519725   17.254856   23.328893 O.3        1 MOL1        -0.5519
      32    H15     15.261192   16.714545   23.699704 H          1 MOL1         0.3769
      33    C10     15.455399   17.406783   21.060294 C.3        1 MOL1         0.1018
      34    H16     14.586938   16.816707   20.738577 H          1 MOL1         0.0783
      35    C11     15.834496   18.386940   19.918485 C.3        1 MOL1         0.1043
      36    H17     16.819753   18.822425   20.131000 H          1 MOL1         0.0783
      37    O9      14.830209   19.426972   19.825523 O.3        1 MOL1        -0.3740
      38    C12     15.899052   17.679721   18.548683 C.3        1 MOL1         0.0138
      39    H18     14.911839   17.262515   18.309367 H          1 MOL1         0.0794
      40    H19     16.610083   16.844932   18.605177 H          1 MOL1         0.0794
      41    O10     16.309852   18.603861   17.539324 O.3        1 MOL1        -0.5486
      42    H20     15.712504   19.378838   17.625090 H          1 MOL1         0.3769
      43    C13     18.337596   24.095741   21.598818 C.3        1 MOL1         0.2972
      44    H21     18.764001   25.105716   21.646044 H          1 MOL1         0.0751
      45    O11     19.362383   23.087819   21.480407 O.3        1 MOL1        -0.3740
      46    C14     17.503652   23.817509   22.873087 C.3        1 MOL1         0.1003
      47    H22     16.687888   24.551687   22.897784 H          1 MOL1         0.0783
      48    O12     18.299230   23.958074   24.058126 O.3        1 MOL1        -0.5519
      49    H23     17.743007   23.579602   24.775690 H          1 MOL1         0.3769
      50    C15     16.872064   22.408533   22.820860 C.3        1 MOL1         0.1053
      51    H24     17.680820   21.671335   22.895255 H          1 MOL1         0.0783
      52    O13     15.963598   22.248823   23.917220 O.3        1 MOL1        -0.5519
      53    H25     15.442676   21.428113   23.734732 H          1 MOL1         0.3769
      54    C16     16.119681   22.165515   21.489527 C.3        1 MOL1         0.1018
      55    H26     15.150304   22.679024   21.538486 H          1 MOL1         0.0783
      56    C17     16.912825   22.643039   20.240673 C.3        1 MOL1         0.1043
      57    H27     17.732846   21.934441   20.063980 H          1 MOL1         0.0783
      58    O14     17.452398   23.969668   20.466284 O.3        1 MOL1        -0.3740
      59    C18     16.058183   22.699040   18.955268 C.3        1 MOL1         0.0138
      60    H28     15.717587   21.686091   18.705733 H          1 MOL1         0.0794
      61    H29     16.690621   23.044133   18.126352 H          1 MOL1         0.0794
      62    O15     14.936035   23.571110   19.119409 O.3        1 MOL1        -0.5486
      63    H30     15.304612   24.445547   19.376549 H          1 MOL1         0.3769
      64    C19     23.452310   22.617474   20.921094 C.3        1 MOL1         0.2972
      65    H31     24.509458   22.745316   20.655526 H          1 MOL1         0.0751
      66    O16     23.162908   21.253341   21.282503 O.3        1 MOL1        -0.3740
      67    C20     23.059154   23.560249   22.091951 C.3        1 MOL1         0.1003
      68    H32     23.238993   24.588332   21.752830 H          1 MOL1         0.0783
      69    O17     23.875507   23.305499   23.246419 O.3        1 MOL1        -0.5519
      70    H33     23.664326   22.388805   23.554382 H          1 MOL1         0.3769
      71    C21     21.547600   23.431414   22.423318 C.3        1 MOL1         0.1053
      72    H34     21.377731   22.434593   22.851431 H          1 MOL1         0.0783
      73    O18     21.148487   24.438907   23.361498 O.3        1 MOL1        -0.5519
      74    H35     20.220393   24.224305   23.627525 H          1 MOL1         0.3769
      75    C22     20.678523   23.566033   21.145657 C.3        1 MOL1         0.1018
      76    H36     20.663668   24.617447   20.829191 H          1 MOL1         0.0783
      77    C23     21.201853   22.703656   19.968065 C.3        1 MOL1         0.1043
      78    H37     21.019556   21.645505   20.198905 H          1 MOL1         0.0783
      79    O19     22.620096   22.943283   19.789418 O.3        1 MOL1        -0.3740
      80    C24     20.505733   23.023826   18.626506 C.3        1 MOL1         0.0138
      81    H38     19.427964   22.845302   18.727561 H          1 MOL1         0.0794
      82    H39     20.882903   22.332536   17.861153 H          1 MOL1         0.0794
      83    O20     20.745473   24.378229   18.232469 O.3        1 MOL1        -0.5486
      84    H40     21.721518   24.495197   18.247068 H          1 MOL1         0.3769
      85    C25     24.928483   17.627128   22.082163 C.3        1 MOL1         0.2972
      86    H41     25.574034   16.779076   22.343455 H          1 MOL1         0.0751
      87    O21     23.703496   17.192612   21.454864 O.3        1 MOL1        -0.3740
      88    C26     24.579271   18.447519   23.350251 C.3        1 MOL1         0.1003
      89    H42     25.518658   18.844514   23.756096 H          1 MOL1         0.0783
      90    O22     23.967953   17.593375   24.331623 O.3        1 MOL1        -0.5519
      91    H43     23.373440   18.151897   24.897287 H          1 MOL1         0.3769
      92    C27     23.675158   19.653613   22.985626 C.3        1 MOL1         0.1053
      93    H44     22.696186   19.261995   22.682155 H          1 MOL1         0.0783
      94    O23     23.529187   20.527530   24.113498 O.3        1 MOL1        -0.5519
      95    H45     22.929261   20.067493   24.757557 H          1 MOL1         0.3769
      96    C28     24.256082   20.472970   21.803104 C.3        1 MOL1         0.1018
      97    H46     25.064825   21.108743   22.187141 H          1 MOL1         0.0783
      98    C29     24.789191   19.589921   20.638713 C.3        1 MOL1         0.1043
      99    H47     23.926208   19.175595   20.100773 H          1 MOL1         0.0783
     100    O24     25.602248   18.512104   21.164118 O.3        1 MOL1        -0.3740
     101    C30     25.644934   20.361811   19.609430 C.3        1 MOL1         0.0138
     102    H48     25.011394   21.095569   19.094086 H          1 MOL1         0.0794
     103    H49     26.004794   19.654394   18.850270 H          1 MOL1         0.0794
     104    O25     26.749556   21.017438   20.238904 O.3        1 MOL1        -0.5486
     105    H50     27.260399   20.315041   20.699564 H          1 MOL1         0.3769
     106    C31     21.431927   13.856306   20.661141 C.3        1 MOL1         0.2972
     107    H51     21.003699   12.893083   20.355147 H          1 MOL1         0.0751
     108    O26     20.402855   14.819959   20.972228 O.3        1 MOL1        -0.3740
     109    C32     22.378292   13.690086   21.878100 C.3        1 MOL1         0.1003
     110    H52     23.217294   13.060293   21.554291 H          1 MOL1         0.0783
     111    O27     21.726582   13.060236   22.987228 O.3        1 MOL1        -0.5519
     112    H53     22.389446   13.087832   23.714163 H          1 MOL1         0.3769
     113    C33     22.953201   15.060035   22.307362 C.3        1 MOL1         0.1053
     114    H54     22.122921   15.678701   22.675797 H          1 MOL1         0.0783
     115    O28     23.908270   14.862943   23.356321 O.3        1 MOL1        -0.5519
     116    H55     24.007994   15.742474   23.799325 H          1 MOL1         0.3769
     117    C34     23.607157   15.798821   21.107340 C.3        1 MOL1         0.1018
     118    H56     24.594111   15.365657   20.897541 H          1 MOL1         0.0783
     119    C35     22.744501   15.739778   19.814646 C.3        1 MOL1         0.1043
     120    H57     21.904376   16.435269   19.927880 H          1 MOL1         0.0783
     121    O29     22.235227   14.400068   19.593821 O.3        1 MOL1        -0.3740
     122    C36     23.528697   16.159792   18.552159 C.3        1 MOL1         0.0138
     123    H58     23.910099   17.180156   18.689947 H          1 MOL1         0.0794
     124    H59     22.838141   16.178116   17.698492 H          1 MOL1         0.0794
     125    O30     24.610317   15.259027   18.295814 O.3        1 MOL1        -0.5486
     126    H60     24.213465   14.359834   18.268326 H          1 MOL1         0.3769
     127    C1      20.710567   18.663807   25.547315 C.2        1 MOL1         0.6115
     128    O1      19.917695   18.678175   26.467908 O.co2      1 MOL1        -0.6776
     129    O2      21.893730   18.923615   25.667904 O.co2      1 MOL1        -0.6776
     130    C2      20.193426   18.332121   24.151532 C.3        1 MOL1        -0.2013
     131    H1      19.322303   17.676948   24.263439 H          1 MOL1         0.0727
     132    H2      20.969374   17.755821   23.636574 H          1 MOL1         0.0727
     133    C3      19.804446   19.593367   23.336831 C.3        1 MOL1        -0.1910
     134    H3      19.044528   20.146851   23.903698 H          1 MOL1         0.0729
     135    H4      20.669782   20.261815   23.250624 H          1 MOL1         0.0729
     136    C4      19.249030   19.276822   21.928077 C.3        1 MOL1        -0.1909
     137    H5      18.864819   20.204847   21.486243 H          1 MOL1         0.0729
     138    H6      18.393629   18.595398   22.017485 H          1 MOL1         0.0729
     139    C5      20.301732   18.673033   20.973210 C.3        1 MOL1        -0.1884
     140    H7      21.170550   19.340238   20.910959 H          1 MOL1         0.0729
     141    H8      20.660932   17.715186   21.368889 H          1 MOL1         0.0729
     142    C6      19.726099   18.455719   19.559999 C.3        1 MOL1        -0.2899
     143    H9      18.902819   17.731881   19.583520 H          1 MOL1         0.0741
     144    H10     19.344249   19.395680   19.141131 H          1 MOL1         0.0741
     145    H11     20.496333   18.070350   18.880809 H          1 MOL1         0.0741
@<TRIPOS>BOND
    1     1     2    1
    2     1     3    1
    3     1     4    1
    4     4     5    1
    5     4     6    1
    6     6     7    1
    7     4     8    1
    8     8     9    1
    9     8    10    1
   10    10    11    1
   11     8    12    1
   12    12    13    1
   13    12    14    1
   14    14    15    1
   15     1    16    1
   16    14    16    1
   17    14    17    1
   18    17    18    1
   19    17    19    1
   20    17    20    1
   21    20    21    1
   22    22    23    1
   23    22    24    1
   24    22    25    1
   25    25    26    1
   26    25    27    1
   27    27    28    1
   28    25    29    1
   29    29    30    1
   30    29    31    1
   31    31    32    1
   32     3    33    1
   33    29    33    1
   34    33    34    1
   35    33    35    1
   36    35    36    1
   37    22    37    1
   38    35    37    1
   39    35    38    1
   40    38    39    1
   41    38    40    1
   42    38    41    1
   43    41    42    1
   44    43    44    1
   45    43    45    1
   46    43    46    1
   47    46    47    1
   48    46    48    1
   49    48    49    1
   50    46    50    1
   51    50    51    1
   52    50    52    1
   53    52    53    1
   54    24    54    1
   55    50    54    1
   56    54    55    1
   57    54    56    1
   58    56    57    1
   59    43    58    1
   60    56    58    1
   61    56    59    1
   62    59    60    1
   63    59    61    1
   64    59    62    1
   65    62    63    1
   66    64    65    1
   67    64    66    1
   68    64    67    1
   69    67    68    1
   70    67    69    1
   71    69    70    1
   72    67    71    1
   73    71    72    1
   74    71    73    1
   75    73    74    1
   76    45    75    1
   77    71    75    1
   78    75    76    1
   79    75    77    1
   80    77    78    1
   81    64    79    1
   82    77    79    1
   83    77    80    1
   84    80    81    1
   85    80    82    1
   86    80    83    1
   87    83    84    1
   88    85    86    1
   89    85    87    1
   90    85    88    1
   91    88    89    1
   92    88    90    1
   93    90    91    1
   94    88    92    1
   95    92    93    1
   96    92    94    1
   97    94    95    1
   98    66    96    1
   99    92    96    1
  100    96    97    1
  101    96    98    1
  102    98    99    1
  103    85   100    1
  104    98   100    1
  105    98   101    1
  106   101   102    1
  107   101   103    1
  108   101   104    1
  109   104   105    1
  110   106   107    1
  111    12   108    1
  112   106   108    1
  113   106   109    1
  114   109   110    1
  115   109   111    1
  116   111   112    1
  117   109   113    1
  118   113   114    1
  119   113   115    1
  120   115   116    1
  121    87   117    1
  122   113   117    1
  123   117   118    1
  124   117   119    1
  125   119   120    1
  126   106   121    1
  127   119   121    1
  128   119   122    1
  129   122   123    1
  130   122   124    1
  131   122   125    1
  132   125   126    1
  133   127   128    1
  134   127   129    2
  135   127   130    1
  136   130   131    1
  137   130   132    1
  138   130   133    1
  139   133   134    1
  140   133   135    1
  141   133   136    1
  142   136   137    1
  143   136   138    1
  144   136   139    1
  145   139   140    1
  146   139   141    1
  147   139   142    1
  148   142   143    1
  149   142   144    1
  150   142   145    1
@<TRIPOS>SUBSTRUCTURE
       1 MOL1            1 RESIDUE      1      MOL     
       2 MOL1          145 RESIDUE      1      MOL     
@<SCITEGIC>MOL_PROPERTY
VM2 Rank
SciTegic.value.IntegerValue
1

@<SCITEGIC>MOL_PROPERTY
Conf_Id
SciTegic.value.IntegerValue
22570

@<SCITEGIC>MOL_PROPERTY
Probability
SciTegic.value.DoubleValue
5.13

@<SCITEGIC>MOL_PROPERTY
Sum Probability
SciTegic.value.DoubleValue
5.13

@<SCITEGIC>MOL_PROPERTY
Delta G
SciTegic.value.DoubleValue
0.000

@<SCITEGIC>MOL_PROPERTY
G
SciTegic.value.DoubleValue
489.175

@<SCITEGIC>MOL_PROPERTY
E
SciTegic.value.DoubleValue
301.847

@<SCITEGIC>MOL_PROPERTY
-TS
SciTegic.value.DoubleValue
187.328

@<SCITEGIC>MOL_PROPERTY
U+W
SciTegic.value.DoubleValue
173.970

@<SCITEGIC>MOL_PROPERTY
U
SciTegic.value.DoubleValue
249.508

@<SCITEGIC>MOL_PROPERTY
W
SciTegic.value.DoubleValue
-75.538

@<SCITEGIC>MOL_PROPERTY
W(PB)
SciTegic.value.DoubleValue
-81.654

@<SCITEGIC>MOL_PROPERTY
W(SA)
SciTegic.value.DoubleValue
6.116

@<SCITEGIC>MOL_PROPERTY
Valence
SciTegic.value.DoubleValue
149.210

@<SCITEGIC>MOL_PROPERTY
Coulomb
SciTegic.value.DoubleValue
124.554

@<SCITEGIC>MOL_PROPERTY
VdW
SciTegic.value.DoubleValue
-24.256

@<SCITEGIC>MOL_PROPERTY
VdW6
SciTegic.value.DoubleValue
-178.463

@<SCITEGIC>MOL_PROPERTY
VdW12
SciTegic.value.DoubleValue
154.207

@<SCITEGIC>MOL_PROPERTY
Bond
SciTegic.value.DoubleValue
4.554

@<SCITEGIC>MOL_PROPERTY
Angle
SciTegic.value.DoubleValue
11.716

@<SCITEGIC>MOL_PROPERTY
Pdih
SciTegic.value.DoubleValue
132.939

@<SCITEGIC>MOL_PROPERTY
Idih
SciTegic.value.DoubleValue
0.001

@<SCITEGIC>MOL_PROPERTY
Tether
SciTegic.value.DoubleValue
0.000

@<TRIPOS>MOLECULE
CD_guest-7_vm2_single.mol2 : vm2 host+ligand conformer 2
         145         150           2
SMALL
USER_CHARGES
 
@<TRIPOS>ATOM
       1    C1      16.367324   15.261781   21.697712 C.3        1 MOL1         0.2972
       2    H1      15.304050   15.120560   21.929185 H          1 MOL1         0.0751
       3    O1      16.634218   16.594889   21.213958 O.3        1 MOL1        -0.3740
       4    C2      17.231494   14.991277   22.954504 C.3        1 MOL1         0.1003
       5    H2      17.069830   13.943417   23.239234 H          1 MOL1         0.0783
       6    O2      16.860195   15.830903   24.054960 O.3        1 MOL1        -0.5519
       7    H3      17.609802   15.747487   24.687411 H          1 MOL1         0.3769
       8    C3      18.733847   15.163531   22.638915 C.3        1 MOL1         0.1053
       9    H4      18.923782   16.220253   22.407286 H          1 MOL1         0.0783
      10    O3      19.490284   14.765423   23.787732 O.3        1 MOL1        -0.5519
      11    H5      20.336278   14.383806   23.453538 H          1 MOL1         0.3769
      12    C4      19.149457   14.319350   21.407459 C.3        1 MOL1         0.1018
      13    H6      19.217739   13.265124   21.708257 H          1 MOL1         0.0783
      14    C5      18.154982   14.471738   20.220770 C.3        1 MOL1         0.1043
      15    H7      18.287880   15.471634   19.788315 H          1 MOL1         0.0783
      16    O4      16.788850   14.323130   20.684337 O.3        1 MOL1        -0.3740
      17    C6      18.384716   13.442394   19.092056 C.3        1 MOL1         0.0138
      18    H8      19.373563   13.614653   18.646633 H          1 MOL1         0.0794
      19    H9      17.638126   13.610360   18.304262 H          1 MOL1         0.0794
      20    O5      18.292631   12.103053   19.586416 O.3        1 MOL1        -0.5486
      21    H10     17.402051   12.021597   19.994834 H          1 MOL1         0.3769
      22    C7      14.729324   20.288205   20.909478 C.3        1 MOL1         0.2972
      23    H11     14.032307   21.109759   20.700442 H          1 MOL1         0.0751
      24    O6      16.019738   20.773033   21.324622 O.3        1 MOL1        -0.3740
      25    C8      14.176836   19.370404   22.028695 C.3        1 MOL1         0.1003
      26    H12     13.218961   18.964822   21.677867 H          1 MOL1         0.0783
      27    O7      13.964369   20.100255   23.245392 O.3        1 MOL1        -0.5519
      28    H13     13.749713   19.409942   23.912595 H          1 MOL1         0.3769
      29    C9      15.130868   18.180573   22.293827 C.3        1 MOL1         0.1053
      30    H14     16.061005   18.579090   22.722888 H          1 MOL1         0.0783
      31    O8      14.509046   17.290999   23.228636 O.3        1 MOL1        -0.5519
      32    H15     15.242082   16.748295   23.612446 H          1 MOL1         0.3769
      33    C10     15.486623   17.435871   20.976154 C.3        1 MOL1         0.1018
      34    H16     14.623761   16.846200   20.639276 H          1 MOL1         0.0783
      35    C11     15.893150   18.417636   19.843918 C.3        1 MOL1         0.1043
      36    H17     16.874910   18.844070   20.087312 H          1 MOL1         0.0783
      37    O9      14.912954   19.478647   19.729508 O.3        1 MOL1        -0.3740
      38    C12     16.002862   17.732108   18.463809 C.3        1 MOL1         0.0138
      39    H18     16.744305   16.924362   18.521291 H          1 MOL1         0.0794
      40    H19     16.371050   18.465966   17.734623 H          1 MOL1         0.0794
      41    O10     14.737373   17.210814   18.047083 O.3        1 MOL1        -0.5486
      42    H20     14.102587   17.958880   18.111413 H          1 MOL1         0.3769
      43    C13     18.374893   24.118810   21.651642 C.3        1 MOL1         0.2972
      44    H21     18.809416   25.123177   21.732942 H          1 MOL1         0.0751
      45    O11     19.391238   23.108030   21.489302 O.3        1 MOL1        -0.3740
      46    C14     17.544717   23.800501   22.918734 C.3        1 MOL1         0.1003
      47    H22     16.731246   24.535777   22.971096 H          1 MOL1         0.0783
      48    O12     18.344628   23.898618   24.105052 O.3        1 MOL1        -0.5519
      49    H23     17.790660   23.495545   24.810870 H          1 MOL1         0.3769
      50    C15     16.908810   22.396026   22.820622 C.3        1 MOL1         0.1053
      51    H24     17.715873   21.655450   22.869106 H          1 MOL1         0.0783
      52    O13     16.002573   22.202114   23.913195 O.3        1 MOL1        -0.5519
      53    H25     15.468070   21.398681   23.697107 H          1 MOL1         0.3769
      54    C16     16.153117   22.196552   21.483723 C.3        1 MOL1         0.1018
      55    H26     15.178912   22.698033   21.556872 H          1 MOL1         0.0783
      56    C17     16.934437   22.726204   20.248053 C.3        1 MOL1         0.1043
      57    H27     17.750792   22.023872   20.033878 H          1 MOL1         0.0783
      58    O14     17.481125   24.040848   20.521641 O.3        1 MOL1        -0.3740
      59    C18     16.066698   22.836918   18.974790 C.3        1 MOL1         0.0138
      60    H28     15.721986   21.835605   18.685510 H          1 MOL1         0.0794
      61    H29     16.691101   23.216494   18.154898 H          1 MOL1         0.0794
      62    O15     14.947602   23.702504   19.187252 O.3        1 MOL1        -0.5486
      63    H30     15.320067   24.565361   19.476087 H          1 MOL1         0.3769
      64    C19     23.483461   22.635158   20.948156 C.3        1 MOL1         0.2972
      65    H31     24.542162   22.761886   20.688240 H          1 MOL1         0.0751
      66    O16     23.188862   21.269198   21.299131 O.3        1 MOL1        -0.3740
      67    C20     23.086947   23.572020   22.122622 C.3        1 MOL1         0.1003
      68    H32     23.269088   24.601695   21.789606 H          1 MOL1         0.0783
      69    O17     23.898955   23.310613   23.278592 O.3        1 MOL1        -0.5519
      70    H33     23.684386   22.393241   23.582148 H          1 MOL1         0.3769
      71    C21     21.573885   23.443116   22.447419 C.3        1 MOL1         0.1053
      72    H34     21.401176   22.443389   22.867516 H          1 MOL1         0.0783
      73    O18     21.173426   24.443844   23.392173 O.3        1 MOL1        -0.5519
      74    H35     20.251546   24.216421   23.668865 H          1 MOL1         0.3769
      75    C22     20.709930   23.588167   21.166972 C.3        1 MOL1         0.1018
      76    H36     20.696379   24.641687   20.857464 H          1 MOL1         0.0783
      77    C23     21.237861   22.734029   19.985304 C.3        1 MOL1         0.1043
      78    H37     21.051996   21.674521   20.206938 H          1 MOL1         0.0783
      79    O19     22.657506   22.971079   19.814963 O.3        1 MOL1        -0.3740
      80    C24     20.549013   23.066540   18.642976 C.3        1 MOL1         0.0138
      81    H38     19.470131   22.891641   18.737992 H          1 MOL1         0.0794
      82    H39     20.927108   22.379438   17.874324 H          1 MOL1         0.0794
      83    O20     20.795461   24.422791   18.259741 O.3        1 MOL1        -0.5486
      84    H40     21.771823   24.536304   18.280545 H          1 MOL1         0.3769
      85    C25     24.945185   17.635329   22.097823 C.3        1 MOL1         0.2972
      86    H41     25.590055   16.787162   22.360437 H          1 MOL1         0.0751
      87    O21     23.722638   17.200885   21.465579 O.3        1 MOL1        -0.3740
      88    C26     24.591847   18.454554   23.365652 C.3        1 MOL1         0.1003
      89    H42     25.530076   18.850556   23.775133 H          1 MOL1         0.0783
      90    O22     23.976767   17.600135   24.344323 O.3        1 MOL1        -0.5519
      91    H43     23.378222   18.158042   24.906322 H          1 MOL1         0.3769
      92    C27     23.689889   19.661723   22.999459 C.3        1 MOL1         0.1053
      93    H44     22.712427   19.271218   22.689951 H          1 MOL1         0.0783
      94    O23     23.538852   20.532785   24.128823 O.3        1 MOL1        -0.5519
      95    H45     22.933992   20.072204   24.767854 H          1 MOL1         0.3769
      96    C28     24.277240   20.483188   21.821732 C.3        1 MOL1         0.1018
      97    H46     25.086911   21.114917   22.210472 H          1 MOL1         0.0783
      98    C29     24.811458   19.601104   20.657204 C.3        1 MOL1         0.1043
      99    H47     23.949103   19.188660   20.116785 H          1 MOL1         0.0783
     100    O24     25.621978   18.521376   21.182866 O.3        1 MOL1        -0.3740
     101    C30     25.670469   20.373810   19.631278 C.3        1 MOL1         0.0138
     102    H48     25.039235   21.110234   19.116875 H          1 MOL1         0.0794
     103    H49     26.030178   19.667612   18.870917 H          1 MOL1         0.0794
     104    O25     26.775322   21.025619   20.264320 O.3        1 MOL1        -0.5486
     105    H50     27.283734   20.321057   20.724367 H          1 MOL1         0.3769
     106    C31     21.449052   13.867989   20.662161 C.3        1 MOL1         0.2972
     107    H51     21.021162   12.904954   20.355098 H          1 MOL1         0.0751
     108    O26     20.419565   14.834445   20.963029 O.3        1 MOL1        -0.3740
     109    C32     22.384812   13.702354   21.887291 C.3        1 MOL1         0.1003
     110    H52     23.223889   13.068120   21.572480 H          1 MOL1         0.0783
     111    O27     21.721301   13.079006   22.993146 O.3        1 MOL1        -0.5519
     112    H53     22.378210   13.106490   23.725449 H          1 MOL1         0.3769
     113    C33     22.961733   15.071213   22.317327 C.3        1 MOL1         0.1053
     114    H54     22.131174   15.693091   22.679617 H          1 MOL1         0.0783
     115    O28     23.909652   14.872099   23.372341 O.3        1 MOL1        -0.5519
     116    H55     24.011217   15.752131   23.813898 H          1 MOL1         0.3769
     117    C34     23.626076   15.806223   21.120645 C.3        1 MOL1         0.1018
     118    H56     24.613688   15.370557   20.919302 H          1 MOL1         0.0783
     119    C35     22.773394   15.745903   19.821466 C.3        1 MOL1         0.1043
     120    H57     21.934203   16.443656   19.926284 H          1 MOL1         0.0783
     121    O29     22.262224   14.407109   19.599952 O.3        1 MOL1        -0.3740
     122    C36     23.568603   16.160904   18.564222 C.3        1 MOL1         0.0138
     123    H58     23.951785   17.180527   18.702807 H          1 MOL1         0.0794
     124    H59     22.884842   16.179232   17.705114 H          1 MOL1         0.0794
     125    O30     24.649655   15.256549   18.318366 O.3        1 MOL1        -0.5486
     126    H60     24.250563   14.358369   18.290034 H          1 MOL1         0.3769
     127    C1      20.709845   18.665226   25.534305 C.2        1 MOL1         0.6115
     128    O1      19.908545   18.675843   26.447615 O.co2      1 MOL1        -0.6776
     129    O2      21.891530   18.925957   25.666601 O.co2      1 MOL1        -0.6776
     130    C2      20.205968   18.336991   24.132822 C.3        1 MOL1        -0.2013
     131    H1      19.334197   17.681227   24.235416 H          1 MOL1         0.0727
     132    H2      20.986788   17.762432   23.623416 H          1 MOL1         0.0727
     133    C3      19.823293   19.600144   23.318134 C.3        1 MOL1        -0.1910
     134    H3      19.059647   20.151500   23.881837 H          1 MOL1         0.0729
     135    H4      20.688924   20.269149   23.240206 H          1 MOL1         0.0729
     136    C4      19.277700   19.287561   21.904432 C.3        1 MOL1        -0.1909
     137    H5      18.896282   20.216671   21.462269 H          1 MOL1         0.0729
     138    H6      18.422034   18.605531   21.986717 H          1 MOL1         0.0729
     139    C5      20.337391   18.687121   20.955235 C.3        1 MOL1        -0.1884
     140    H7      21.204095   19.357567   20.897488 H          1 MOL1         0.0729
     141    H8      20.698063   17.731076   21.353927 H          1 MOL1         0.0729
     142    C6      19.770259   18.466202   19.539181 C.3        1 MOL1        -0.2899
     143    H9      18.954382   17.734343   19.560748 H          1 MOL1         0.0741
     144    H10     19.384302   19.404128   19.119828 H          1 MOL1         0.0741
     145    H11     20.547657   18.087293   18.864351 H          1 MOL1         0.0741
@<TRIPOS>BOND
    1     1     2    1
    2     1     3    1
    3     1     4    1
    4     4     5    1
    5     4     6    1
    6     6     7    1
    7     4     8    1
    8     8     9    1
    9     8    10    1
   10    10    11    1
   11     8    12    1
   12    12    13    1
   13    12    14    1
   14    14    15    1
   15     1    16    1
   16    14    16    1
   17    14    17    1
   18    17    18    1
   19    17    19    1
   20    17    20    1
   21    20    21    1
   22    22    23    1
   23    22    24    1
   24    22    25    1
   25    25    26    1
   26    25    27    1
   27    27    28    1
   28    25    29    1
   29    29    30    1
   30    29    31    1
   31    31    32    1
   32     3    33    1
   33    29    33    1
   34    33    34    1
   35    33    35    1
   36    35    36    1
   37    22    37    1
   38    35    37    1
   39    35    38    1
   40    38    39    1
   41    38    40    1
   42    38    41    1
   43    41    42    1
   44    43    44    1
   45    43    45    1
   46    43    46    1
   47    46    47    1
   48    46    48    1
   49    48    49    1
   50    46    50    1
   51    50    51    1
   52    50    52    1
   53    52    53    1
   54    24    54    1
   55    50    54    1
   56    54    55    1
   57    54    56    1
   58    56    57    1
   59    43    58    1
   60    56    58    1
   61    56    59    1
   62    59    60    1
   63    59    61    1
   64    59    62    1
   65    62    63    1
   66    64    65    1
   67    64    66    1
   68    64    67    1
   69    67    68    1
   70    67    69    1
   71    69    70    1
   72    67    71    1
   73    71    72    1
   74    71    73    1
   75    73    74    1
   76    45    75    1
   77    71    75    1
   78    75    76    1
   79    75    77    1
   80    77    78    1
   81    64    79    1
   82    77    79    1
   83    77    80    1
   84    80    81    1
   85    80    82    1
   86    80    83    1
   87    83    84    1
   88    85    86    1
   89    85    87    1
   90    85    88    1
   91    88    89    1
   92    88    90    1
   93    90    91    1
   94    88    92    1
   95    92    93    1
   96    92    94    1
   97    94    95    1
   98    66    96    1
   99    92    96    1
  100    96    97    1
  101    96    98    1
  102    98    99    1
  103    85   100    1
  104    98   100    1
  105    98   101    1
  106   101   102    1
  107   101   103    1
  108   101   104    1
  109   104   105    1
  110   106   107    1
  111    12   108    1
  112   106   108    1
  113   106   109    1
  114   109   110    1
  115   109   111    1
  116   111   112    1
  117   109   113    1
  118   113   114    1
  119   113   115    1
  120   115   116    1
  121    87   117    1
  122   113   117    1
  123   117   118    1
  124   117   119    1
  125   119   120    1
  126   106   121    1
  127   119   121    1
  128   119   122    1
  129   122   123    1
  130   122   124    1
  131   122   125    1
  132   125   126    1
  133   127   128    1
  134   127   129    2
  135   127   130    1
  136   130   131    1
  137   130   132    1
  138   130   133    1
  139   133   134    1
  140   133   135    1
  141   133   136    1
  142   136   137    1
  143   136   138    1
  144   136   139    1
  145   139   140    1
  146   139   141    1
  147   139   142    1
  148   142   143    1
  149   142   144    1
  150   142   145    1
@<TRIPOS>SUBSTRUCTURE
       1 MOL1            1 RESIDUE      1      MOL     
       2 MOL1          145 RESIDUE      1      MOL     
@<SCITEGIC>MOL_PROPERTY
VM2 Rank
SciTegic.value.IntegerValue
2

@<SCITEGIC>MOL_PROPERTY
Conf_Id
SciTegic.value.IntegerValue
22132

@<SCITEGIC>MOL_PROPERTY
Probability
SciTegic.value.DoubleValue
3.38

@<SCITEGIC>MOL_PROPERTY
Sum Probability
SciTegic.value.DoubleValue
8.50

@<SCITEGIC>MOL_PROPERTY
Delta G
SciTegic.value.DoubleValue
0.249

@<SCITEGIC>MOL_PROPERTY
G
SciTegic.value.DoubleValue
489.424

@<SCITEGIC>MOL_PROPERTY
E
SciTegic.value.DoubleValue
301.747

@<SCITEGIC>MOL_PROPERTY
-TS
SciTegic.value.DoubleValue
187.677

@<SCITEGIC>MOL_PROPERTY
U+W
SciTegic.value.DoubleValue
173.870

@<SCITEGIC>MOL_PROPERTY
U
SciTegic.value.DoubleValue
248.770

@<SCITEGIC>MOL_PROPERTY
W
SciTegic.value.DoubleValue
-74.901

@<SCITEGIC>MOL_PROPERTY
W(PB)
SciTegic.value.DoubleValue
-81.050

@<SCITEGIC>MOL_PROPERTY
W(SA)
SciTegic.value.DoubleValue
6.150

@<SCITEGIC>MOL_PROPERTY
Valence
SciTegic.value.DoubleValue
149.020

@<SCITEGIC>MOL_PROPERTY
Coulomb
SciTegic.value.DoubleValue
123.476

@<SCITEGIC>MOL_PROPERTY
VdW
SciTegic.value.DoubleValue
-23.726

@<SCITEGIC>MOL_PROPERTY
VdW6
SciTegic.value.DoubleValue
-178.627

@<SCITEGIC>MOL_PROPERTY
VdW12
SciTegic.value.DoubleValue
154.901

@<SCITEGIC>MOL_PROPERTY
Bond
SciTegic.value.DoubleValue
4.595

@<SCITEGIC>MOL_PROPERTY
Angle
SciTegic.value.DoubleValue
11.817

@<SCITEGIC>MOL_PROPERTY
Pdih
SciTegic.value.DoubleValue
132.608

@<SCITEGIC>MOL_PROPERTY
Idih
SciTegic.value.DoubleValue
0.001

@<SCITEGIC>MOL_PROPERTY
Tether
SciTegic.value.DoubleValue
0.000

@<TRIPOS>MOLECULE
CD_guest-7_vm2_single.mol2 : vm2 host+ligand conformer 3
         145         150           2
SMALL
USER_CHARGES
 
@<TRIPOS>ATOM
       1    C1      16.369832   15.287531   21.666976 C.3        1 MOL1         0.2972
       2    H1      15.306205   15.141944   21.894070 H          1 MOL1         0.0751
       3    O1      16.635603   16.626306   21.198565 O.3        1 MOL1        -0.3740
       4    C2      17.231113   15.004755   22.923102 C.3        1 MOL1         0.1003
       5    H2      17.070208   13.953655   23.196072 H          1 MOL1         0.0783
       6    O2      16.855615   15.831911   24.031563 O.3        1 MOL1        -0.5519
       7    H3      17.603582   15.742606   24.665128 H          1 MOL1         0.3769
       8    C3      18.734091   15.182489   22.613500 C.3        1 MOL1         0.1053
       9    H4      18.923274   16.242018   22.394348 H          1 MOL1         0.0783
      10    O3      19.488211   14.772303   23.759609 O.3        1 MOL1        -0.5519
      11    H5      20.337184   14.399206   23.423276 H          1 MOL1         0.3769
      12    C4      19.153952   14.352433   21.373925 C.3        1 MOL1         0.1018
      13    H6      19.222547   13.295053   21.663363 H          1 MOL1         0.0783
      14    C5      18.162642   14.516835   20.186219 C.3        1 MOL1         0.1043
      15    H7      18.295254   15.521779   19.765510 H          1 MOL1         0.0783
      16    O4      16.795532   14.360847   20.644398 O.3        1 MOL1        -0.3740
      17    C6      18.396943   13.500683   19.046536 C.3        1 MOL1         0.0138
      18    H8      19.386664   13.679504   18.605662 H          1 MOL1         0.0794
      19    H9      17.652145   13.676415   18.258741 H          1 MOL1         0.0794
      20    O5      18.305658   12.155687   19.525475 O.3        1 MOL1        -0.5486
      21    H10     17.414179   12.068306   19.930688 H          1 MOL1         0.3769
      22    C7      14.723618   20.318579   20.929240 C.3        1 MOL1         0.2972
      23    H11     14.025856   21.141341   20.727640 H          1 MOL1         0.0751
      24    O6      16.011880   20.800383   21.354289 O.3        1 MOL1        -0.3740
      25    C8      14.169411   19.387081   22.036167 C.3        1 MOL1         0.1003
      26    H12     13.213596   18.983359   21.677662 H          1 MOL1         0.0783
      27    O7      13.951419   20.102854   23.260242 O.3        1 MOL1        -0.5519
      28    H13     13.736781   19.404615   23.919150 H          1 MOL1         0.3769
      29    C9      15.125351   18.196516   22.291000 C.3        1 MOL1         0.1053
      30    H14     16.053234   18.592332   22.727376 H          1 MOL1         0.0783
      31    O8      14.502792   17.295143   23.213959 O.3        1 MOL1        -0.5519
      32    H15     15.236008   16.750097   23.594092 H          1 MOL1         0.3769
      33    C10     15.487061   17.467490   20.966178 C.3        1 MOL1         0.1018
      34    H16     14.626620   16.879745   20.619884 H          1 MOL1         0.0783
      35    C11     15.894924   18.462908   19.846305 C.3        1 MOL1         0.1043
      36    H17     16.874891   18.889047   20.097512 H          1 MOL1         0.0783
      37    O9      14.912298   19.522649   19.740855 O.3        1 MOL1        -0.3740
      38    C12     16.010649   17.793389   18.458855 C.3        1 MOL1         0.0138
      39    H18     16.753663   16.986641   18.509562 H          1 MOL1         0.0794
      40    H19     16.379725   18.536331   17.739344 H          1 MOL1         0.0794
      41    O10     14.747630   17.274176   18.032089 O.3        1 MOL1        -0.5486
      42    H20     14.111048   18.020109   18.103030 H          1 MOL1         0.3769
      43    C13     18.363831   24.144922   21.721027 C.3        1 MOL1         0.2972
      44    H21     18.797061   25.148803   21.814427 H          1 MOL1         0.0751
      45    O11     19.381563   23.136606   21.558120 O.3        1 MOL1        -0.3740
      46    C14     17.526166   23.815646   22.979925 C.3        1 MOL1         0.1003
      47    H22     16.712034   24.550056   23.034120 H          1 MOL1         0.0783
      48    O12     18.321079   23.904628   24.170419 O.3        1 MOL1        -0.5519
      49    H23     17.764220   23.496457   24.870963 H          1 MOL1         0.3769
      50    C15     16.892212   22.411543   22.866517 C.3        1 MOL1         0.1053
      51    H24     17.699376   21.670778   22.914748 H          1 MOL1         0.0783
      52    O13     15.978526   22.208678   23.951211 O.3        1 MOL1        -0.5519
      53    H25     15.447705   21.405184   23.726347 H          1 MOL1         0.3769
      54    C16     16.145882   22.222601   21.522894 C.3        1 MOL1         0.1018
      55    H26     15.171852   22.724963   21.592203 H          1 MOL1         0.0783
      56    C17     16.937049   22.759299   20.296362 C.3        1 MOL1         0.1043
      57    H27     17.754791   22.057477   20.084411 H          1 MOL1         0.0783
      58    O14     17.481841   24.073369   20.581280 O.3        1 MOL1        -0.3740
      59    C18     16.079211   22.876226   19.016964 C.3        1 MOL1         0.0138
      60    H28     15.734417   21.876676   18.721798 H          1 MOL1         0.0794
      61    H29     16.710421   23.256467   18.202674 H          1 MOL1         0.0794
      62    O15     14.960592   23.743733   19.224135 O.3        1 MOL1        -0.5486
      63    H30     15.332140   24.603866   19.521999 H          1 MOL1         0.3769
      64    C19     23.470497   22.678842   20.990944 C.3        1 MOL1         0.2972
      65    H31     24.526792   22.812651   20.724865 H          1 MOL1         0.0751
      66    O16     23.182768   21.307790   21.327615 O.3        1 MOL1        -0.3740
      67    C20     23.078035   23.600180   22.178874 C.3        1 MOL1         0.1003
      68    H32     23.254758   24.634297   21.856916 H          1 MOL1         0.0783
      69    O17     23.896546   23.329249   23.327866 O.3        1 MOL1        -0.5519
      70    H33     23.685394   22.408472   23.623444 H          1 MOL1         0.3769
      71    C21     21.567046   23.461304   22.508451 C.3        1 MOL1         0.1053
      72    H34     21.400088   22.457083   22.920120 H          1 MOL1         0.0783
      73    O18     21.163857   24.452291   23.462296 O.3        1 MOL1        -0.5519
      74    H35     20.243051   24.219247   23.737957 H          1 MOL1         0.3769
      75    C22     20.698940   23.614604   21.231963 C.3        1 MOL1         0.1018
      76    H36     20.687061   24.669490   20.926554 H          1 MOL1         0.0783
      77    C23     21.218249   22.768692   20.042161 C.3        1 MOL1         0.1043
      78    H37     21.033824   21.705521   20.248278 H          1 MOL1         0.0783
      79    O19     22.633675   23.026967   19.868813 O.3        1 MOL1        -0.3740
      80    C24     20.519715   23.141142   18.717626 C.3        1 MOL1         0.0138
      81    H38     20.756720   24.183062   18.464241 H          1 MOL1         0.0794
      82    H39     19.432705   23.068709   18.844612 H          1 MOL1         0.0794
      83    O20     20.946351   22.262738   17.675080 O.3        1 MOL1        -0.5486
      84    H40     21.928007   22.244358   17.720939 H          1 MOL1         0.3769
      85    C25     24.948361   17.671119   22.091258 C.3        1 MOL1         0.2972
      86    H41     25.595506   16.821950   22.344878 H          1 MOL1         0.0751
      87    O21     23.725113   17.239912   21.458378 O.3        1 MOL1        -0.3740
      88    C26     24.596284   18.478439   23.367009 C.3        1 MOL1         0.1003
      89    H42     25.534625   18.872891   23.777722 H          1 MOL1         0.0783
      90    O22     23.985316   17.614197   24.339667 O.3        1 MOL1        -0.5519
      91    H43     23.386692   18.165814   24.907749 H          1 MOL1         0.3769
      92    C27     23.690867   19.686788   23.013477 C.3        1 MOL1         0.1053
      93    H44     22.713566   19.296841   22.702781 H          1 MOL1         0.0783
      94    O23     23.540239   20.546802   24.151315 O.3        1 MOL1        -0.5519
      95    H45     22.937480   20.079027   24.787120 H          1 MOL1         0.3769
      96    C28     24.273857   20.519974   21.841559 C.3        1 MOL1         0.1018
      97    H46     25.083100   21.150168   22.233605 H          1 MOL1         0.0783
      98    C29     24.806893   19.649086   20.668179 C.3        1 MOL1         0.1043
      99    H47     23.943917   19.239617   20.126403 H          1 MOL1         0.0783
     100    O24     25.621078   18.566574   21.182445 O.3        1 MOL1        -0.3740
     101    C30     25.661488   20.432621   19.646839 C.3        1 MOL1         0.0138
     102    H48     25.027386   21.172500   19.141095 H          1 MOL1         0.0794
     103    H49     26.020234   19.734018   18.879045 H          1 MOL1         0.0794
     104    O25     26.766963   21.080788   20.282521 O.3        1 MOL1        -0.5486
     105    H50     27.277661   20.373131   20.735215 H          1 MOL1         0.3769
     106    C31     21.455134   13.911456   20.627932 C.3        1 MOL1         0.2972
     107    H51     21.028314   12.950565   20.312768 H          1 MOL1         0.0751
     108    O26     20.424733   14.873613   20.938918 O.3        1 MOL1        -0.3740
     109    C32     22.392068   13.736345   21.850803 C.3        1 MOL1         0.1003
     110    H52     23.231354   13.105337   21.530134 H          1 MOL1         0.0783
     111    O27     21.729598   13.103579   22.951952 O.3        1 MOL1        -0.5519
     112    H53     22.386716   13.126073   23.684219 H          1 MOL1         0.3769
     113    C33     22.968197   15.102001   22.291949 C.3        1 MOL1         0.1053
     114    H54     22.137418   15.719717   22.660814 H          1 MOL1         0.0783
     115    O28     23.917785   14.894730   23.343895 O.3        1 MOL1        -0.5519
     116    H55     24.019616   15.771181   23.792456 H          1 MOL1         0.3769
     117    C34     23.630076   15.848388   21.100980 C.3        1 MOL1         0.1018
     118    H56     24.617964   15.415847   20.894344 H          1 MOL1         0.0783
     119    C35     22.775568   15.798833   19.802616 C.3        1 MOL1         0.1043
     120    H57     21.935487   16.494262   19.915298 H          1 MOL1         0.0783
     121    O29     22.266294   14.461272   19.569667 O.3        1 MOL1        -0.3740
     122    C36     23.568033   16.226862   18.548012 C.3        1 MOL1         0.0138
     123    H58     23.949662   17.245835   18.695429 H          1 MOL1         0.0794
     124    H59     22.882819   16.252074   17.690232 H          1 MOL1         0.0794
     125    O30     24.650197   15.326624   18.292040 O.3        1 MOL1        -0.5486
     126    H60     24.252533   14.428088   18.256128 H          1 MOL1         0.3769
     127    C1      20.717960   18.660482   25.549413 C.2        1 MOL1         0.6115
     128    O1      19.920313   18.661375   26.465983 O.co2      1 MOL1        -0.6776
     129    O2      21.899575   18.922939   25.679155 O.co2      1 MOL1        -0.6776
     130    C2      20.209299   18.343085   24.147194 C.3        1 MOL1        -0.2013
     131    H1      19.338972   17.684888   24.246893 H          1 MOL1         0.0727
     132    H2      20.989469   17.774236   23.630442 H          1 MOL1         0.0727
     133    C3      19.822318   19.612552   23.344398 C.3        1 MOL1        -0.1910
     134    H3      19.058252   20.157765   23.913546 H          1 MOL1         0.0729
     135    H4      20.686655   20.283708   23.270993 H          1 MOL1         0.0729
     136    C4      19.276082   19.311471   21.928513 C.3        1 MOL1        -0.1909
     137    H5      18.896031   20.244553   21.493429 H          1 MOL1         0.0729
     138    H6      18.419536   18.629903   22.005128 H          1 MOL1         0.0729
     139    C5      20.335277   18.717307   20.974730 C.3        1 MOL1        -0.1884
     140    H7      21.203990   19.385786   20.924702 H          1 MOL1         0.0729
     141    H8      20.692262   17.755815   21.363313 H          1 MOL1         0.0729
     142    C6      19.770555   18.514554   19.555127 C.3        1 MOL1        -0.2899
     143    H9      19.396500   19.460936   19.143030 H          1 MOL1         0.0741
     144    H10     20.546831   18.136027   18.878898 H          1 MOL1         0.0741
     145    H11     18.947760   17.790492   19.566290 H          1 MOL1         0.0741
@<TRIPOS>BOND
    1     1     2    1
    2     1     3    1
    3     1     4    1
    4     4     5    1
    5     4     6    1
    6     6     7    1
    7     4     8    1
    8     8     9    1
    9     8    10    1
   10    10    11    1
   11     8    12    1
   12    12    13    1
   13    12    14    1
   14    14    15    1
   15     1    16    1
   16    14    16    1
   17    14    17    1
   18    17    18    1
   19    17    19    1
   20    17    20    1
   21    20    21    1
   22    22    23    1
   23    22    24    1
   24    22    25    1
   25    25    26    1
   26    25    27    1
   27    27    28    1
   28    25    29    1
   29    29    30    1
   30    29    31    1
   31    31    32    1
   32     3    33    1
   33    29    33    1
   34    33    34    1
   35    33    35    1
   36    35    36    1
   37    22    37    1
   38    35    37    1
   39    35    38    1
   40    38    39    1
   41    38    40    1
   42    38    41    1
   43    41    42    1
   44    43    44    1
   45    43    45    1
   46    43    46    1
   47    46    47    1
   48    46    48    1
   49    48    49    1
   50    46    50    1
   51    50    51    1
   52    50    52    1
   53    52    53    1
   54    24    54    1
   55    50    54    1
   56    54    55    1
   57    54    56    1
   58    56    57    1
   59    43    58    1
   60    56    58    1
   61    56    59    1
   62    59    60    1
   63    59    61    1
   64    59    62    1
   65    62    63    1
   66    64    65    1
   67    64    66    1
   68    64    67    1
   69    67    68    1
   70    67    69    1
   71    69    70    1
   72    67    71    1
   73    71    72    1
   74    71    73    1
   75    73    74    1
   76    45    75    1
   77    71    75    1
   78    75    76    1
   79    75    77    1
   80    77    78    1
   81    64    79    1
   82    77    79    1
   83    77    80    1
   84    80    81    1
   85    80    82    1
   86    80    83    1
   87    83    84    1
   88    85    86    1
   89    85    87    1
   90    85    88    1
   91    88    89    1
   92    88    90    1
   93    90    91    1
   94    88    92    1
   95    92    93    1
   96    92    94    1
   97    94    95    1
   98    66    96    1
   99    92    96    1
  100    96    97    1
  101    96    98    1
  102    98    99    1
  103    85   100    1
  104    98   100    1
  105    98   101    1
  106   101   102    1
  107   101   103    1
  108   101   104    1
  109   104   105    1
  110   106   107    1
  111    12   108    1
  112   106   108    1
  113   106   109    1
  114   109   110    1
  115   109   111    1
  116   111   112    1
  117   109   113    1
  118   113   114    1
  119   113   115    1
  120   115   116    1
  121    87   117    1
  122   113   117    1
  123   117   118    1
  124   117   119    1
  125   119   120    1
  126   106   121    1
  127   119   121    1
  128   119   122    1
  129   122   123    1
  130   122   124    1
  131   122   125    1
  132   125   126    1
  133   127   128    1
  134   127   129    2
  135   127   130    1
  136   130   131    1
  137   130   132    1
  138   130   133    1
  139   133   134    1
  140   133   135    1
  141   133   136    1
  142   136   137    1
  143   136   138    1
  144   136   139    1
  145   139   140    1
  146   139   141    1
  147   139   142    1
  148   142   143    1
  149   142   144    1
  150   142   145    1
@<TRIPOS>SUBSTRUCTURE
       1 MOL1            1 RESIDUE      1      MOL     
       2 MOL1          145 RESIDUE      1      MOL     
@<SCITEGIC>MOL_PROPERTY
VM2 Rank
SciTegic.value.IntegerValue
3

@<SCITEGIC>MOL_PROPERTY
Conf_Id
SciTegic.value.IntegerValue
23955

@<SCITEGIC>MOL_PROPERTY
Probability
SciTegic.value.DoubleValue
2.86

@<SCITEGIC>MOL_PROPERTY
Sum Probability
SciTegic.value.DoubleValue
11.36

@<SCITEGIC>MOL_PROPERTY
Delta G
SciTegic.value.DoubleValue
0.348

@<SCITEGIC>MOL_PROPERTY
G
SciTegic.value.DoubleValue
489.522

@<SCITEGIC>MOL_PROPERTY
E
SciTegic.value.DoubleValue
302.002

@<SCITEGIC>MOL_PROPERTY
-TS
SciTegic.value.DoubleValue
187.520

@<SCITEGIC>MOL_PROPERTY
U+W
SciTegic.value.DoubleValue
174.125

@<SCITEGIC>MOL_PROPERTY
U
SciTegic.value.DoubleValue
249.032

@<SCITEGIC>MOL_PROPERTY
W
SciTegic.value.DoubleValue
-74.907

@<SCITEGIC>MOL_PROPERTY
W(PB)
SciTegic.value.DoubleValue
-81.039

@<SCITEGIC>MOL_PROPERTY
W(SA)
SciTegic.value.DoubleValue
6.132

@<SCITEGIC>MOL_PROPERTY
Valence
SciTegic.value.DoubleValue
149.171

@<SCITEGIC>MOL_PROPERTY
Coulomb
SciTegic.value.DoubleValue
123.985

@<SCITEGIC>MOL_PROPERTY
VdW
SciTegic.value.DoubleValue
-24.124

@<SCITEGIC>MOL_PROPERTY
VdW6
SciTegic.value.DoubleValue
-178.332

@<SCITEGIC>MOL_PROPERTY
VdW12
SciTegic.value.DoubleValue
154.208

@<SCITEGIC>MOL_PROPERTY
Bond
SciTegic.value.DoubleValue
4.565

@<SCITEGIC>MOL_PROPERTY
Angle
SciTegic.value.DoubleValue
11.749

@<SCITEGIC>MOL_PROPERTY
Pdih
SciTegic.value.DoubleValue
132.856

@<SCITEGIC>MOL_PROPERTY
Idih
SciTegic.value.DoubleValue
0.001

@<SCITEGIC>MOL_PROPERTY
Tether
SciTegic.value.DoubleValue
0.000

@<TRIPOS>MOLECULE
CD_guest-7_vm2_single.mol2 : vm2 host+ligand conformer 4
         145         150           2
SMALL
USER_CHARGES
 
@<TRIPOS>ATOM
       1    C1      16.397379   15.198534   21.860058 C.3        1 MOL1         0.2972
       2    H1      15.342719   15.054955   22.126811 H          1 MOL1         0.0751
       3    O1      16.641395   16.522833   21.342722 O.3        1 MOL1        -0.3740
       4    C2      17.301636   14.954071   23.092579 C.3        1 MOL1         0.1003
       5    H2      17.151832   13.911453   23.401958 H          1 MOL1         0.0783
       6    O2      16.962608   15.813150   24.188326 O.3        1 MOL1        -0.5519
       7    H3      17.731385   15.742700   24.798924 H          1 MOL1         0.3769
       8    C3      18.792498   15.123206   22.725576 C.3        1 MOL1         0.1053
       9    H4      18.972622   16.177345   22.474458 H          1 MOL1         0.0783
      10    O3      19.581618   14.743917   23.858194 O.3        1 MOL1        -0.5519
      11    H5      20.416796   14.353868   23.508017 H          1 MOL1         0.3769
      12    C4      19.172372   14.263442   21.491031 C.3        1 MOL1         0.1018
      13    H6      19.248775   13.211029   21.796487 H          1 MOL1         0.0783
      14    C5      18.141803   14.403181   20.334191 C.3        1 MOL1         0.1043
      15    H7      18.259898   15.394718   19.877691 H          1 MOL1         0.0783
      16    O4      16.794904   14.245762   20.851394 O.3        1 MOL1        -0.3740
      17    C6      18.339124   13.340779   19.233117 C.3        1 MOL1         0.0138
      18    H8      18.220123   12.339687   19.668784 H          1 MOL1         0.0794
      19    H9      19.358805   13.416352   18.833131 H          1 MOL1         0.0794
      20    O5      17.391680   13.546372   18.183489 O.3        1 MOL1        -0.5486
      21    H10     16.514625   13.619383   18.622791 H          1 MOL1         0.3769
      22    C7      14.686127   20.188967   21.026916 C.3        1 MOL1         0.2972
      23    H11     13.972283   20.997175   20.823120 H          1 MOL1         0.0751
      24    O6      15.983262   20.696305   21.392233 O.3        1 MOL1        -0.3740
      25    C8      14.181812   19.290392   22.183200 C.3        1 MOL1         0.1003
      26    H12     13.217748   18.866747   21.873055 H          1 MOL1         0.0783
      27    O7      14.000483   20.043897   23.390484 O.3        1 MOL1        -0.5519
      28    H13     13.818436   19.365886   24.079549 H          1 MOL1         0.3769
      29    C9      15.158681   18.117418   22.440188 C.3        1 MOL1         0.1053
      30    H14     16.095503   18.534265   22.835970 H          1 MOL1         0.0783
      31    O8      14.574182   17.235947   23.406054 O.3        1 MOL1        -0.5519
      32    H15     15.324648   16.710359   23.780027 H          1 MOL1         0.3769
      33    C10     15.485093   17.355304   21.124397 C.3        1 MOL1         0.1018
      34    H16     14.616458   16.757291   20.818238 H          1 MOL1         0.0783
      35    C11     15.852442   18.319433   19.965146 C.3        1 MOL1         0.1043
      36    H17     16.835678   18.764866   20.165989 H          1 MOL1         0.0783
      37    O9      14.840235   19.351152   19.862038 O.3        1 MOL1        -0.3740
      38    C12     15.916030   17.592972   18.605130 C.3        1 MOL1         0.0138
      39    H18     14.934455   17.154024   18.382281 H          1 MOL1         0.0794
      40    H19     16.643384   16.772242   18.664915 H          1 MOL1         0.0794
      41    O10     16.297833   18.511284   17.578945 O.3        1 MOL1        -0.5486
      42    H20     15.688410   19.276892   17.663743 H          1 MOL1         0.3769
      43    C13     18.324957   24.073895   21.542806 C.3        1 MOL1         0.2972
      44    H21     18.743266   25.087978   21.569830 H          1 MOL1         0.0751
      45    O11     19.357757   23.071694   21.448716 O.3        1 MOL1        -0.3740
      46    C14     17.489947   23.815776   22.820604 C.3        1 MOL1         0.1003
      47    H22     16.668499   24.543970   22.828099 H          1 MOL1         0.0783
      48    O12     18.281337   23.986955   24.004422 O.3        1 MOL1        -0.5519
      49    H23     17.725784   23.619744   24.728345 H          1 MOL1         0.3769
      50    C15     16.869411   22.401130   22.796221 C.3        1 MOL1         0.1053
      51    H24     17.683681   21.671728   22.887187 H          1 MOL1         0.0783
      52    O13     15.960237   22.257411   23.894191 O.3        1 MOL1        -0.5519
      53    H25     15.448068   21.427353   23.729848 H          1 MOL1         0.3769
      54    C16     16.121423   22.125714   21.468649 C.3        1 MOL1         0.1018
      55    H26     15.149150   22.634790   21.504418 H          1 MOL1         0.0783
      56    C17     16.914943   22.581825   20.212104 C.3        1 MOL1         0.1043
      57    H27     17.740747   21.875767   20.052909 H          1 MOL1         0.0783
      58    O14     17.443954   23.916989   20.410800 O.3        1 MOL1        -0.3740
      59    C18     16.063596   22.603769   18.923502 C.3        1 MOL1         0.0138
      60    H28     15.730192   21.583328   18.695735 H          1 MOL1         0.0794
      61    H29     16.696116   22.934399   18.088785 H          1 MOL1         0.0794
      62    O15     14.935466   23.472049   19.065257 O.3        1 MOL1        -0.5486
      63    H30     15.297762   24.354121   19.304606 H          1 MOL1         0.3769
      64    C19     23.449051   22.611322   20.901512 C.3        1 MOL1         0.2972
      65    H31     24.506485   22.738516   20.636756 H          1 MOL1         0.0751
      66    O16     23.161870   21.250932   21.278426 O.3        1 MOL1        -0.3740
      67    C20     23.050919   23.566650   22.060345 C.3        1 MOL1         0.1003
      68    H32     23.227659   24.591241   21.709237 H          1 MOL1         0.0783
      69    O17     23.866319   23.328569   23.219026 O.3        1 MOL1        -0.5519
      70    H33     23.657065   22.415253   23.538140 H          1 MOL1         0.3769
      71    C21     21.539299   23.436178   22.390673 C.3        1 MOL1         0.1053
      72    H34     21.372167   22.443825   22.830241 H          1 MOL1         0.0783
      73    O18     21.134867   24.453361   23.316028 O.3        1 MOL1        -0.5519
      74    H35     20.205074   24.241956   23.578681 H          1 MOL1         0.3769
      75    C22     20.671844   23.552751   21.110188 C.3        1 MOL1         0.1018
      76    H36     20.652611   24.600709   20.782717 H          1 MOL1         0.0783
      77    C23     21.200530   22.680166   19.942515 C.3        1 MOL1         0.1043
      78    H37     21.020950   21.623880   20.183702 H          1 MOL1         0.0783
      79    O19     22.618457   22.922092   19.764400 O.3        1 MOL1        -0.3740
      80    C24     20.506088   22.984406   18.596398 C.3        1 MOL1         0.0138
      81    H38     19.428692   22.803258   18.697162 H          1 MOL1         0.0794
      82    H39     20.887109   22.286696   17.838818 H          1 MOL1         0.0794
      83    O20     20.742130   24.335568   18.189207 O.3        1 MOL1        -0.5486
      84    H40     21.717773   24.455820   18.204098 H          1 MOL1         0.3769
      85    C25     24.933130   17.638632   22.126410 C.3        1 MOL1         0.2972
      86    H41     25.580583   16.795926   22.400032 H          1 MOL1         0.0751
      87    O21     23.710208   17.192110   21.503349 O.3        1 MOL1        -0.3740
      88    C26     24.579578   18.473613   23.383528 C.3        1 MOL1         0.1003
      89    H42     25.517293   18.877081   23.786844 H          1 MOL1         0.0783
      90    O22     23.967544   17.629505   24.373131 O.3        1 MOL1        -0.5519
      91    H43     23.375975   18.194575   24.935302 H          1 MOL1         0.3769
      92    C27     23.674051   19.673564   23.002504 C.3        1 MOL1         0.1053
      93    H44     22.696281   19.276591   22.702359 H          1 MOL1         0.0783
      94    O23     23.524776   20.561114   24.119239 O.3        1 MOL1        -0.5519
      95    H45     22.926298   20.107413   24.769127 H          1 MOL1         0.3769
      96    C28     24.255423   20.479130   21.810713 C.3        1 MOL1         0.1018
      97    H46     25.062579   21.121025   22.187849 H          1 MOL1         0.0783
      98    C29     24.791389   19.582488   20.658201 C.3        1 MOL1         0.1043
      99    H47     23.929683   19.159560   20.124967 H          1 MOL1         0.0783
     100    O24     25.606129   18.513267   21.198051 O.3        1 MOL1        -0.3740
     101    C30     25.646475   20.342967   19.619927 C.3        1 MOL1         0.0138
     102    H48     25.011935   21.068917   19.094844 H          1 MOL1         0.0794
     103    H49     26.008364   19.626699   18.870084 H          1 MOL1         0.0794
     104    O25     26.749269   21.008670   20.241990 O.3        1 MOL1        -0.5486
     105    H50     27.261016   20.313155   20.711993 H          1 MOL1         0.3769
     106    C31     21.476972   13.824979   20.716004 C.3        1 MOL1         0.2972
     107    H51     21.068054   12.852599   20.414805 H          1 MOL1         0.0751
     108    O26     20.428324   14.776159   21.003004 O.3        1 MOL1        -0.3740
     109    C32     22.416622   13.680498   21.940474 C.3        1 MOL1         0.1003
     110    H52     23.268488   13.063938   21.624692 H          1 MOL1         0.0783
     111    O27     21.768383   13.040427   23.045225 O.3        1 MOL1        -0.5519
     112    H53     22.426578   13.077326   23.776187 H          1 MOL1         0.3769
     113    C33     22.967146   15.061409   22.365750 C.3        1 MOL1         0.1053
     114    H54     22.125029   15.673014   22.718638 H          1 MOL1         0.0783
     115    O28     23.912886   14.885839   23.426794 O.3        1 MOL1        -0.5519
     116    H55     24.004078   15.772444   23.857469 H          1 MOL1         0.3769
     117    C34     23.625342   15.795425   21.165237 C.3        1 MOL1         0.1018
     118    H56     24.616719   15.367092   20.966560 H          1 MOL1         0.0783
     119    C35     22.773005   15.718062   19.866525 C.3        1 MOL1         0.1043
     120    H57     21.923766   16.404174   19.969037 H          1 MOL1         0.0783
     121    O29     22.281833   14.370297   19.651191 O.3        1 MOL1        -0.3740
     122    C36     23.561593   16.138642   18.606947 C.3        1 MOL1         0.0138
     123    H58     23.929235   17.164616   18.740027 H          1 MOL1         0.0794
     124    H59     22.877394   16.142162   17.747971 H          1 MOL1         0.0794
     125    O30     24.656323   15.249686   18.365401 O.3        1 MOL1        -0.5486
     126    H60     24.270826   14.345545   18.339596 H          1 MOL1         0.3769
     127    C1      20.718252   18.695047   25.579010 C.2        1 MOL1         0.6115
     128    O1      19.923650   18.703493   26.498176 O.co2      1 MOL1        -0.6776
     129    O2      21.896984   18.974276   25.699568 O.co2      1 MOL1        -0.6776
     130    C2      20.209233   18.343307   24.185173 C.3        1 MOL1        -0.2013
     131    H1      19.346540   17.677850   24.301014 H          1 MOL1         0.0727
     132    H2      20.993852   17.772222   23.677645 H          1 MOL1         0.0727
     133    C3      19.805714   19.591374   23.357370 C.3        1 MOL1        -0.1910
     134    H3      19.037546   20.140644   23.917263 H          1 MOL1         0.0729
     135    H4      20.662447   20.270180   23.265489 H          1 MOL1         0.0729
     136    C4      19.256212   19.252923   21.951538 C.3        1 MOL1        -0.1909
     137    H5      18.858584   20.170764   21.500454 H          1 MOL1         0.0729
     138    H6      18.411046   18.559888   22.047492 H          1 MOL1         0.0729
     139    C5      20.317637   18.654984   21.002712 C.3        1 MOL1        -0.1884
     140    H7      21.174846   19.335982   20.930707 H          1 MOL1         0.0729
     141    H8      20.693643   17.708147   21.409168 H          1 MOL1         0.0729
     142    C6      19.743282   18.410733   19.593396 C.3        1 MOL1        -0.2899
     143    H9      18.934125   17.671235   19.626804 H          1 MOL1         0.0741
     144    H10     19.342536   19.338314   19.164716 H          1 MOL1         0.0741
     145    H11     20.519233   18.032501   18.916714 H          1 MOL1         0.0741
@<TRIPOS>BOND
    1     1     2    1
    2     1     3    1
    3     1     4    1
    4     4     5    1
    5     4     6    1
    6     6     7    1
    7     4     8    1
    8     8     9    1
    9     8    10    1
   10    10    11    1
   11     8    12    1
   12    12    13    1
   13    12    14    1
   14    14    15    1
   15     1    16    1
   16    14    16    1
   17    14    17    1
   18    17    18    1
   19    17    19    1
   20    17    20    1
   21    20    21    1
   22    22    23    1
   23    22    24    1
   24    22    25    1
   25    25    26    1
   26    25    27    1
   27    27    28    1
   28    25    29    1
   29    29    30    1
   30    29    31    1
   31    31    32    1
   32     3    33    1
   33    29    33    1
   34    33    34    1
   35    33    35    1
   36    35    36    1
   37    22    37    1
   38    35    37    1
   39    35    38    1
   40    38    39    1
   41    38    40    1
   42    38    41    1
   43    41    42    1
   44    43    44    1
   45    43    45    1
   46    43    46    1
   47    46    47    1
   48    46    48    1
   49    48    49    1
   50    46    50    1
   51    50    51    1
   52    50    52    1
   53    52    53    1
   54    24    54    1
   55    50    54    1
   56    54    55    1
   57    54    56    1
   58    56    57    1
   59    43    58    1
   60    56    58    1
   61    56    59    1
   62    59    60    1
   63    59    61    1
   64    59    62    1
   65    62    63    1
   66    64    65    1
   67    64    66    1
   68    64    67    1
   69    67    68    1
   70    67    69    1
   71    69    70    1
   72    67    71    1
   73    71    72    1
   74    71    73    1
   75    73    74    1
   76    45    75    1
   77    71    75    1
   78    75    76    1
   79    75    77    1
   80    77    78    1
   81    64    79    1
   82    77    79    1
   83    77    80    1
   84    80    81    1
   85    80    82    1
   86    80    83    1
   87    83    84    1
   88    85    86    1
   89    85    87    1
   90    85    88    1
   91    88    89    1
   92    88    90    1
   93    90    91    1
   94    88    92    1
   95    92    93    1
   96    92    94    1
   97    94    95    1
   98    66    96    1
   99    92    96    1
  100    96    97    1
  101    96    98    1
  102    98    99    1
  103    85   100    1
  104    98   100    1
  105    98   101    1
  106   101   102    1
  107   101   103    1
  108   101   104    1
  109   104   105    1
  110   106   107    1
  111    12   108    1
  112   106   108    1
  113   106   109    1
  114   109   110    1
  115   109   111    1
  116   111   112    1
  117   109   113    1
  118   113   114    1
  119   113   115    1
  120   115   116    1
  121    87   117    1
  122   113   117    1
  123   117   118    1
  124   117   119    1
  125   119   120    1
  126   106   121    1
  127   119   121    1
  128   119   122    1
  129   122   123    1
  130   122   124    1
  131   122   125    1
  132   125   126    1
  133   127   128    1
  134   127   129    2
  135   127   130    1
  136   130   131    1
  137   130   132    1
  138   130   133    1
  139   133   134    1
  140   133   135    1
  141   133   136    1
  142   136   137    1
  143   136   138    1
  144   136   139    1
  145   139   140    1
  146   139   141    1
  147   139   142    1
  148   142   143    1
  149   142   144    1
  150   142   145    1
@<TRIPOS>SUBSTRUCTURE
       1 MOL1            1 RESIDUE      1      MOL     
       2 MOL1          145 RESIDUE      1      MOL     
@<SCITEGIC>MOL_PROPERTY
VM2 Rank
SciTegic.value.IntegerValue
4

@<SCITEGIC>MOL_PROPERTY
Conf_Id
SciTegic.value.IntegerValue
24167

@<SCITEGIC>MOL_PROPERTY
Probability
SciTegic.value.DoubleValue
2.50

@<SCITEGIC>MOL_PROPERTY
Sum Probability
SciTegic.value.DoubleValue
13.86

@<SCITEGIC>MOL_PROPERTY
Delta G
SciTegic.value.DoubleValue
0.429

@<SCITEGIC>MOL_PROPERTY
G
SciTegic.value.DoubleValue
489.603

@<SCITEGIC>MOL_PROPERTY
E
SciTegic.value.DoubleValue
302.374

@<SCITEGIC>MOL_PROPERTY
-TS
SciTegic.value.DoubleValue
187.230

@<SCITEGIC>MOL_PROPERTY
U+W
SciTegic.value.DoubleValue
174.497

@<SCITEGIC>MOL_PROPERTY
U
SciTegic.value.DoubleValue
251.271

@<SCITEGIC>MOL_PROPERTY
W
SciTegic.value.DoubleValue
-76.774

@<SCITEGIC>MOL_PROPERTY
W(PB)
SciTegic.value.DoubleValue
-82.884

@<SCITEGIC>MOL_PROPERTY
W(SA)
SciTegic.value.DoubleValue
6.109

@<SCITEGIC>MOL_PROPERTY
Valence
SciTegic.value.DoubleValue
149.755

@<SCITEGIC>MOL_PROPERTY
Coulomb
SciTegic.value.DoubleValue
125.956

@<SCITEGIC>MOL_PROPERTY
VdW
SciTegic.value.DoubleValue
-24.440

@<SCITEGIC>MOL_PROPERTY
VdW6
SciTegic.value.DoubleValue
-178.058

@<SCITEGIC>MOL_PROPERTY
VdW12
SciTegic.value.DoubleValue
153.619

@<SCITEGIC>MOL_PROPERTY
Bond
SciTegic.value.DoubleValue
4.548

@<SCITEGIC>MOL_PROPERTY
Angle
SciTegic.value.DoubleValue
11.712

@<SCITEGIC>MOL_PROPERTY
Pdih
SciTegic.value.DoubleValue
133.494

@<SCITEGIC>MOL_PROPERTY
Idih
SciTegic.value.DoubleValue
0.001

@<SCITEGIC>MOL_PROPERTY
Tether
SciTegic.value.DoubleValue
0.000

@<TRIPOS>MOLECULE
CD_guest-7_vm2_single.mol2 : vm2 host+ligand conformer 5
         145         150           2
SMALL
USER_CHARGES
 
@<TRIPOS>ATOM
       1    C1      16.356554   15.227151   21.775866 C.3        1 MOL1         0.2972
       2    H1      15.299189   15.078954   22.029134 H          1 MOL1         0.0751
       3    O1      16.605197   16.562219   21.288703 O.3        1 MOL1        -0.3740
       4    C2      17.248307   14.957202   23.013526 C.3        1 MOL1         0.1003
       5    H2      17.098919   13.907255   23.297302 H          1 MOL1         0.0783
       6    O2      16.895574   15.789798   24.125137 O.3        1 MOL1        -0.5519
       7    H3      17.659038   15.707845   24.741074 H          1 MOL1         0.3769
       8    C3      18.742500   15.139844   22.668235 C.3        1 MOL1         0.1053
       9    H4      18.921269   16.198190   22.434781 H          1 MOL1         0.0783
      10    O3      19.523754   14.744693   23.801339 O.3        1 MOL1        -0.5519
      11    H5      20.360550   14.358599   23.449794 H          1 MOL1         0.3769
      12    C4      19.137051   14.299986   21.427086 C.3        1 MOL1         0.1018
      13    H6      19.214160   13.245054   21.723246 H          1 MOL1         0.0783
      14    C5      18.119513   14.453229   20.260172 C.3        1 MOL1         0.1043
      15    H7      18.240943   15.455678   19.829703 H          1 MOL1         0.0783
      16    O4      16.762127   14.296721   20.748330 O.3        1 MOL1        -0.3740
      17    C6      18.333104   13.429607   19.123072 C.3        1 MOL1         0.0138
      18    H8      19.313727   13.606944   18.661705 H          1 MOL1         0.0794
      19    H9      17.572967   13.598440   18.348625 H          1 MOL1         0.0794
      20    O5      18.253603   12.087884   19.613075 O.3        1 MOL1        -0.5486
      21    H10     17.371113   12.001981   20.037791 H          1 MOL1         0.3769
      22    C7      14.672844   20.242967   21.027995 C.3        1 MOL1         0.2972
      23    H11     13.964570   21.059376   20.838166 H          1 MOL1         0.0751
      24    O6      15.974431   20.734787   21.399291 O.3        1 MOL1        -0.3740
      25    C8      14.163113   19.332400   22.172200 C.3        1 MOL1         0.1003
      26    H12     13.194362   18.922451   21.858268 H          1 MOL1         0.0783
      27    O7      13.991588   20.071071   23.390175 O.3        1 MOL1        -0.5519
      28    H13     13.805779   19.385574   24.070705 H          1 MOL1         0.3769
      29    C9      15.129008   18.146412   22.410752 C.3        1 MOL1         0.1053
      30    H14     16.068591   18.548003   22.815666 H          1 MOL1         0.0783
      31    O8      14.533448   17.254022   23.359566 O.3        1 MOL1        -0.5519
      32    H15     15.276869   16.712120   23.724099 H          1 MOL1         0.3769
      33    C10     15.451666   17.402489   21.083735 C.3        1 MOL1         0.1018
      34    H16     14.580236   16.812684   20.769635 H          1 MOL1         0.0783
      35    C11     15.822453   18.380812   19.937689 C.3        1 MOL1         0.1043
      36    H17     16.809264   18.816585   20.142112 H          1 MOL1         0.0783
      37    O9      14.817461   19.420521   19.851200 O.3        1 MOL1        -0.3740
      38    C12     15.876865   17.671826   18.568378 C.3        1 MOL1         0.0138
      39    H18     14.889066   17.250557   18.338793 H          1 MOL1         0.0794
      40    H19     16.591486   16.839782   18.619670 H          1 MOL1         0.0794
      41    O10     16.274878   18.595893   17.553786 O.3        1 MOL1        -0.5486
      42    H20     15.669667   19.364826   17.638198 H          1 MOL1         0.3769
      43    C13     18.344744   24.100582   21.552202 C.3        1 MOL1         0.2972
      44    H21     18.761469   25.115374   21.574899 H          1 MOL1         0.0751
      45    O11     19.380126   23.098797   21.494201 O.3        1 MOL1        -0.3740
      46    C14     17.486737   23.857601   22.817910 C.3        1 MOL1         0.1003
      47    H22     16.668439   24.589234   22.804818 H          1 MOL1         0.0783
      48    O12     18.259466   24.036461   24.013066 O.3        1 MOL1        -0.5519
      49    H23     17.689572   23.680935   24.731605 H          1 MOL1         0.3769
      50    C15     16.860811   22.445042   22.796723 C.3        1 MOL1         0.1053
      51    H24     17.670194   21.712488   22.907177 H          1 MOL1         0.0783
      52    O13     15.932653   22.314670   23.880531 O.3        1 MOL1        -0.5519
      53    H25     15.427164   21.479620   23.720393 H          1 MOL1         0.3769
      54    C16     16.133250   22.162826   21.459595 C.3        1 MOL1         0.1018
      55    H26     15.168566   22.687190   21.470466 H          1 MOL1         0.0783
      56    C17     16.957263   22.593483   20.214121 C.3        1 MOL1         0.1043
      57    H27     17.782973   21.881446   20.084953 H          1 MOL1         0.0783
      58    O14     17.487255   23.929170   20.404123 O.3        1 MOL1        -0.3740
      59    C18     16.135149   22.600564   18.906569 C.3        1 MOL1         0.0138
      60    H28     15.799212   21.579230   18.687577 H          1 MOL1         0.0794
      61    H29     16.788532   22.913039   18.081103 H          1 MOL1         0.0794
      62    O15     15.011016   23.479431   19.008985 O.3        1 MOL1        -0.5486
      63    H30     15.374750   24.361507   19.246103 H          1 MOL1         0.3769
      64    C19     23.469026   22.625214   20.941505 C.3        1 MOL1         0.2972
      65    H31     24.527813   22.752438   20.682341 H          1 MOL1         0.0751
      66    O16     23.173455   21.257590   21.286279 O.3        1 MOL1        -0.3740
      67    C20     23.073334   23.556390   22.120661 C.3        1 MOL1         0.1003
      68    H32     23.251459   24.587895   21.791033 H          1 MOL1         0.0783
      69    O17     23.888157   23.292749   23.274233 O.3        1 MOL1        -0.5519
      70    H33     23.671538   22.376048   23.578298 H          1 MOL1         0.3769
      71    C21     21.561525   23.420433   22.446520 C.3        1 MOL1         0.1053
      72    H34     21.390313   22.416119   22.855910 H          1 MOL1         0.0783
      73    O18     21.156839   24.411087   23.400487 O.3        1 MOL1        -0.5519
      74    H35     20.214582   24.215243   23.628388 H          1 MOL1         0.3769
      75    C22     20.698391   23.578383   21.168543 C.3        1 MOL1         0.1018
      76    H36     20.690835   24.636287   20.874680 H          1 MOL1         0.0783
      77    C23     21.223471   22.736967   19.976239 C.3        1 MOL1         0.1043
      78    H37     21.040975   21.675922   20.192350 H          1 MOL1         0.0783
      79    O19     22.644478   22.966812   19.809556 O.3        1 MOL1        -0.3740
      80    C24     20.519662   23.067238   18.638226 C.3        1 MOL1         0.0138
      81    H38     19.478307   22.727009   18.700233 H          1 MOL1         0.0794
      82    H39     21.003503   22.492605   17.837249 H          1 MOL1         0.0794
      83    O20     20.554686   24.468757   18.337732 O.3        1 MOL1        -0.5486
      84    H40     20.096026   24.601335   17.480186 H          1 MOL1         0.3769
      85    C25     24.921969   17.621435   22.079981 C.3        1 MOL1         0.2972
      86    H41     25.563795   16.770461   22.340919 H          1 MOL1         0.0751
      87    O21     23.699629   17.193081   21.443276 O.3        1 MOL1        -0.3740
      88    C26     24.567273   18.436587   23.349944 C.3        1 MOL1         0.1003
      89    H42     25.505321   18.829135   23.763157 H          1 MOL1         0.0783
      90    O22     23.948211   17.579308   24.323700 O.3        1 MOL1        -0.5519
      91    H43     23.358302   18.137765   24.894179 H          1 MOL1         0.3769
      92    C27     23.668574   19.646974   22.985934 C.3        1 MOL1         0.1053
      93    H44     22.690031   19.260106   22.674837 H          1 MOL1         0.0783
      94    O23     23.519069   20.515363   24.117566 O.3        1 MOL1        -0.5519
      95    H45     22.917811   20.052538   24.758352 H          1 MOL1         0.3769
      96    C28     24.259722   20.470445   21.811095 C.3        1 MOL1         0.1018
      97    H46     25.068437   21.101209   22.203348 H          1 MOL1         0.0783
      98    C29     24.797275   19.591746   20.645597 C.3        1 MOL1         0.1043
      99    H47     23.936426   19.182793   20.100187 H          1 MOL1         0.0783
     100    O24     25.603861   18.508865   21.170393 O.3        1 MOL1        -0.3740
     101    C30     25.661651   20.366771   19.625926 C.3        1 MOL1         0.0138
     102    H48     25.033984   21.106883   19.112418 H          1 MOL1         0.0794
     103    H49     26.022330   19.662912   18.863856 H          1 MOL1         0.0794
     104    O25     26.765874   21.013171   20.265589 O.3        1 MOL1        -0.5486
     105    H50     27.270520   20.305487   20.725001 H          1 MOL1         0.3769
     106    C31     21.425600   13.859087   20.641032 C.3        1 MOL1         0.2972
     107    H51     20.997263   12.897046   20.331504 H          1 MOL1         0.0751
     108    O26     20.396592   14.820286   20.959783 O.3        1 MOL1        -0.3740
     109    C32     22.376002   13.687587   21.854114 C.3        1 MOL1         0.1003
     110    H52     23.214774   13.060653   21.524208 H          1 MOL1         0.0783
     111    O27     21.728946   13.050805   22.962013 O.3        1 MOL1        -0.5519
     112    H53     22.394452   13.074924   23.686670 H          1 MOL1         0.3769
     113    C33     22.950604   15.055993   22.288640 C.3        1 MOL1         0.1053
     114    H54     22.120725   15.672371   22.661824 H          1 MOL1         0.0783
     115    O28     23.907910   14.854341   23.334684 O.3        1 MOL1        -0.5519
     116    H55     24.003256   15.730497   23.785269 H          1 MOL1         0.3769
     117    C34     23.601118   15.800745   21.090297 C.3        1 MOL1         0.1018
     118    H56     24.587208   15.368257   20.875112 H          1 MOL1         0.0783
     119    C35     22.734008   15.748029   19.800288 C.3        1 MOL1         0.1043
     120    H57     21.893706   16.442274   19.920287 H          1 MOL1         0.0783
     121    O29     22.225096   14.409045   19.574024 O.3        1 MOL1        -0.3740
     122    C36     23.513430   16.175435   18.537314 C.3        1 MOL1         0.0138
     123    H58     23.894278   17.195453   18.679126 H          1 MOL1         0.0794
     124    H59     22.819903   16.197550   17.686150 H          1 MOL1         0.0794
     125    O30     24.595049   15.277118   18.272489 O.3        1 MOL1        -0.5486
     126    H60     24.198991   14.377688   18.241574 H          1 MOL1         0.3769
     127    C1      20.699564   18.656645   25.552793 C.2        1 MOL1         0.6115
     128    O1      19.907365   18.673008   26.473935 O.co2      1 MOL1        -0.6776
     129    O2      21.883754   18.911975   25.672727 O.co2      1 MOL1        -0.6776
     130    C2      20.180263   18.328544   24.157034 C.3        1 MOL1        -0.2013
     131    H1      19.308660   17.673979   24.268652 H          1 MOL1         0.0727
     132    H2      20.954918   17.752542   23.639735 H          1 MOL1         0.0727
     133    C3      19.791498   19.591825   23.345454 C.3        1 MOL1        -0.1910
     134    H3      19.030928   20.144374   23.912587 H          1 MOL1         0.0729
     135    H4      20.657033   20.260223   23.260903 H          1 MOL1         0.0729
     136    C4      19.236595   19.277920   21.936191 C.3        1 MOL1        -0.1909
     137    H5      18.845843   20.205564   21.499862 H          1 MOL1         0.0729
     138    H6      18.385913   18.590461   22.023525 H          1 MOL1         0.0729
     139    C5      20.291990   18.686032   20.976886 C.3        1 MOL1        -0.1884
     140    H7      21.153587   19.362469   20.912512 H          1 MOL1         0.0729
     141    H8      20.662516   17.731320   21.369808 H          1 MOL1         0.0729
     142    C6      19.713335   18.464789   19.565489 C.3        1 MOL1        -0.2899
     143    H9      18.897627   17.732403   19.590997 H          1 MOL1         0.0741
     144    H10     19.320374   19.401379   19.149392 H          1 MOL1         0.0741
     145    H11     20.485068   18.088304   18.883003 H          1 MOL1         0.0741
@<TRIPOS>BOND
    1     1     2    1
    2     1     3    1
    3     1     4    1
    4     4     5    1
    5     4     6    1
    6     6     7    1
    7     4     8    1
    8     8     9    1
    9     8    10    1
   10    10    11    1
   11     8    12    1
   12    12    13    1
   13    12    14    1
   14    14    15    1
   15     1    16    1
   16    14    16    1
   17    14    17    1
   18    17    18    1
   19    17    19    1
   20    17    20    1
   21    20    21    1
   22    22    23    1
   23    22    24    1
   24    22    25    1
   25    25    26    1
   26    25    27    1
   27    27    28    1
   28    25    29    1
   29    29    30    1
   30    29    31    1
   31    31    32    1
   32     3    33    1
   33    29    33    1
   34    33    34    1
   35    33    35    1
   36    35    36    1
   37    22    37    1
   38    35    37    1
   39    35    38    1
   40    38    39    1
   41    38    40    1
   42    38    41    1
   43    41    42    1
   44    43    44    1
   45    43    45    1
   46    43    46    1
   47    46    47    1
   48    46    48    1
   49    48    49    1
   50    46    50    1
   51    50    51    1
   52    50    52    1
   53    52    53    1
   54    24    54    1
   55    50    54    1
   56    54    55    1
   57    54    56    1
   58    56    57    1
   59    43    58    1
   60    56    58    1
   61    56    59    1
   62    59    60    1
   63    59    61    1
   64    59    62    1
   65    62    63    1
   66    64    65    1
   67    64    66    1
   68    64    67    1
   69    67    68    1
   70    67    69    1
   71    69    70    1
   72    67    71    1
   73    71    72    1
   74    71    73    1
   75    73    74    1
   76    45    75    1
   77    71    75    1
   78    75    76    1
   79    75    77    1
   80    77    78    1
   81    64    79    1
   82    77    79    1
   83    77    80    1
   84    80    81    1
   85    80    82    1
   86    80    83    1
   87    83    84    1
   88    85    86    1
   89    85    87    1
   90    85    88    1
   91    88    89    1
   92    88    90    1
   93    90    91    1
   94    88    92    1
   95    92    93    1
   96    92    94    1
   97    94    95    1
   98    66    96    1
   99    92    96    1
  100    96    97    1
  101    96    98    1
  102    98    99    1
  103    85   100    1
  104    98   100    1
  105    98   101    1
  106   101   102    1
  107   101   103    1
  108   101   104    1
  109   104   105    1
  110   106   107    1
  111    12   108    1
  112   106   108    1
  113   106   109    1
  114   109   110    1
  115   109   111    1
  116   111   112    1
  117   109   113    1
  118   113   114    1
  119   113   115    1
  120   115   116    1
  121    87   117    1
  122   113   117    1
  123   117   118    1
  124   117   119    1
  125   119   120    1
  126   106   121    1
  127   119   121    1
  128   119   122    1
  129   122   123    1
  130   122   124    1
  131   122   125    1
  132   125   126    1
  133   127   128    1
  134   127   129    2
  135   127   130    1
  136   130   131    1
  137   130   132    1
  138   130   133    1
  139   133   134    1
  140   133   135    1
  141   133   136    1
  142   136   137    1
  143   136   138    1
  144   136   139    1
  145   139   140    1
  146   139   141    1
  147   139   142    1
  148   142   143    1
  149   142   144    1
  150   142   145    1
@<TRIPOS>SUBSTRUCTURE
       1 MOL1            1 RESIDUE      1      MOL     
       2 MOL1          145 RESIDUE      1      MOL     
@<SCITEGIC>MOL_PROPERTY
VM2 Rank
SciTegic.value.IntegerValue
5

@<SCITEGIC>MOL_PROPERTY
Conf_Id
SciTegic.value.IntegerValue
23905

@<SCITEGIC>MOL_PROPERTY
Probability
SciTegic.value.DoubleValue
1.97

@<SCITEGIC>MOL_PROPERTY
Sum Probability
SciTegic.value.DoubleValue
15.83

@<SCITEGIC>MOL_PROPERTY
Delta G
SciTegic.value.DoubleValue
0.571

@<SCITEGIC>MOL_PROPERTY
G
SciTegic.value.DoubleValue
489.746

@<SCITEGIC>MOL_PROPERTY
E
SciTegic.value.DoubleValue
302.660

@<SCITEGIC>MOL_PROPERTY
-TS
SciTegic.value.DoubleValue
187.085

@<SCITEGIC>MOL_PROPERTY
U+W
SciTegic.value.DoubleValue
174.784

@<SCITEGIC>MOL_PROPERTY
U
SciTegic.value.DoubleValue
253.216

@<SCITEGIC>MOL_PROPERTY
W
SciTegic.value.DoubleValue
-78.432

@<SCITEGIC>MOL_PROPERTY
W(PB)
SciTegic.value.DoubleValue
-84.557

@<SCITEGIC>MOL_PROPERTY
W(SA)
SciTegic.value.DoubleValue
6.124

@<SCITEGIC>MOL_PROPERTY
Valence
SciTegic.value.DoubleValue
148.709

@<SCITEGIC>MOL_PROPERTY
Coulomb
SciTegic.value.DoubleValue
128.887

@<SCITEGIC>MOL_PROPERTY
VdW
SciTegic.value.DoubleValue
-24.379

@<SCITEGIC>MOL_PROPERTY
VdW6
SciTegic.value.DoubleValue
-178.403

@<SCITEGIC>MOL_PROPERTY
VdW12
SciTegic.value.DoubleValue
154.023

@<SCITEGIC>MOL_PROPERTY
Bond
SciTegic.value.DoubleValue
4.555

@<SCITEGIC>MOL_PROPERTY
Angle
SciTegic.value.DoubleValue
11.801

@<SCITEGIC>MOL_PROPERTY
Pdih
SciTegic.value.DoubleValue
132.351

@<SCITEGIC>MOL_PROPERTY
Idih
SciTegic.value.DoubleValue
0.001

@<SCITEGIC>MOL_PROPERTY
Tether
SciTegic.value.DoubleValue
0.000

@<TRIPOS>MOLECULE
CD_guest-7_vm2_single.mol2 : vm2 host+ligand conformer 6
         145         150           2
SMALL
USER_CHARGES
 
@<TRIPOS>ATOM
       1    C1      16.403505   15.228832   21.791232 C.3        1 MOL1         0.2972
       2    H1      15.342825   15.083086   22.031862 H          1 MOL1         0.0751
       3    O1      16.663258   16.564697   21.314613 O.3        1 MOL1        -0.3740
       4    C2      17.278359   14.953974   23.038101 C.3        1 MOL1         0.1003
       5    H2      17.113953   13.907101   23.324797 H          1 MOL1         0.0783
       6    O2      16.919245   15.796855   24.140418 O.3        1 MOL1        -0.5519
       7    H3      17.671601   15.709025   24.768837 H          1 MOL1         0.3769
       8    C3      18.778651   15.118972   22.707617 C.3        1 MOL1         0.1053
       9    H4      18.971588   16.176636   22.482265 H          1 MOL1         0.0783
      10    O3      19.540503   14.710244   23.848536 O.3        1 MOL1        -0.5519
      11    H5      20.390453   14.342632   23.509200 H          1 MOL1         0.3769
      12    C4      19.179927   14.283311   21.463336 C.3        1 MOL1         0.1018
      13    H6      19.236804   13.223038   21.744912 H          1 MOL1         0.0783
      14    C5      18.179046   14.465558   20.287175 C.3        1 MOL1         0.1043
      15    H7      18.313918   15.470561   19.866954 H          1 MOL1         0.0783
      16    O4      16.820651   14.300085   20.768363 O.3        1 MOL1        -0.3740
      17    C6      18.392573   13.440338   19.154849 C.3        1 MOL1         0.0138
      18    H8      18.220674   12.427957   19.544266 H          1 MOL1         0.0794
      19    H9      19.431016   13.495800   18.802920 H          1 MOL1         0.0794
      20    O5      17.501494   13.721340   18.073658 O.3        1 MOL1        -0.5486
      21    H10     16.613885   13.851243   18.478471 H          1 MOL1         0.3769
      22    C7      14.731493   20.230363   20.932775 C.3        1 MOL1         0.2972
      23    H11     14.028189   21.043241   20.711327 H          1 MOL1         0.0751
      24    O6      16.023980   20.731170   21.322629 O.3        1 MOL1        -0.3740
      25    C8      14.195113   19.335934   22.078936 C.3        1 MOL1         0.1003
      26    H12     13.239064   18.911920   21.745347 H          1 MOL1         0.0783
      27    O7      13.983700   20.092637   23.279021 O.3        1 MOL1        -0.5519
      28    H13     13.783238   19.416140   23.964638 H          1 MOL1         0.3769
      29    C9      15.164008   18.163532   22.364883 C.3        1 MOL1         0.1053
      30    H14     16.095874   18.582488   22.769971 H          1 MOL1         0.0783
      31    O8      14.566851   17.290788   23.331282 O.3        1 MOL1        -0.5519
      32    H15     15.308283   16.749819   23.701503 H          1 MOL1         0.3769
      33    C10     15.508034   17.388513   21.062820 C.3        1 MOL1         0.1018
      34    H16     14.645355   16.783830   20.753148 H          1 MOL1         0.0783
      35    C11     15.894032   18.340066   19.898461 C.3        1 MOL1         0.1043
      36    H17     16.877385   18.777159   20.115144 H          1 MOL1         0.0783
      37    O9      14.907218   19.393745   19.770077 O.3        1 MOL1        -0.3740
      38    C12     15.985661   17.614361   18.537237 C.3        1 MOL1         0.0138
      39    H18     16.735019   16.814410   18.604671 H          1 MOL1         0.0794
      40    H19     16.334504   18.328792   17.779857 H          1 MOL1         0.0794
      41    O10     14.717399   17.070289   18.159256 O.3        1 MOL1        -0.5486
      42    H20     14.078244   17.815665   18.207132 H          1 MOL1         0.3769
      43    C13     18.362390   24.095084   21.586515 C.3        1 MOL1         0.2972
      44    H21     18.791357   25.103254   21.647668 H          1 MOL1         0.0751
      45    O11     19.384237   23.086587   21.446449 O.3        1 MOL1        -0.3740
      46    C14     17.532167   23.798223   22.858697 C.3        1 MOL1         0.1003
      47    H22     16.714416   24.529742   22.894502 H          1 MOL1         0.0783
      48    O12     18.329033   23.925417   24.044250 O.3        1 MOL1        -0.5519
      49    H23     17.775542   23.534029   24.757029 H          1 MOL1         0.3769
      50    C15     16.904307   22.388462   22.788988 C.3        1 MOL1         0.1053
      51    H24     17.715275   21.653186   22.853440 H          1 MOL1         0.0783
      52    O13     15.999042   22.213790   23.885506 O.3        1 MOL1        -0.5519
      53    H25     15.468034   21.403393   23.687349 H          1 MOL1         0.3769
      54    C16     16.150541   22.158080   21.455681 C.3        1 MOL1         0.1018
      55    H26     15.174015   22.656557   21.517356 H          1 MOL1         0.0783
      56    C17     16.930741   22.666325   20.210435 C.3        1 MOL1         0.1043
      57    H27     17.751037   21.964057   20.011518 H          1 MOL1         0.0783
      58    O14     17.470408   23.989156   20.457302 O.3        1 MOL1        -0.3740
      59    C18     16.063336   22.745508   18.934640 C.3        1 MOL1         0.0138
      60    H28     15.721599   21.736739   18.668404 H          1 MOL1         0.0794
      61    H29     16.686959   23.108137   18.106533 H          1 MOL1         0.0794
      62    O15     14.941631   23.612416   19.127064 O.3        1 MOL1        -0.5486
      63    H30     15.311481   24.482235   19.397827 H          1 MOL1         0.3769
      64    C19     23.479784   22.621221   20.926110 C.3        1 MOL1         0.2972
      65    H31     24.538852   22.747938   20.667707 H          1 MOL1         0.0751
      66    O16     23.189042   21.259986   21.297569 O.3        1 MOL1        -0.3740
      67    C20     23.076215   23.573873   22.085208 C.3        1 MOL1         0.1003
      68    H32     23.256710   24.599136   21.737991 H          1 MOL1         0.0783
      69    O17     23.884685   23.331223   23.247797 O.3        1 MOL1        -0.5519
      70    H33     23.673257   22.416836   23.562369 H          1 MOL1         0.3769
      71    C21     21.562398   23.445338   22.406632 C.3        1 MOL1         0.1053
      72    H34     21.391203   22.451993   22.842367 H          1 MOL1         0.0783
      73    O18     21.156173   24.460297   23.333521 O.3        1 MOL1        -0.5519
      74    H35     20.233300   24.236118   23.609587 H          1 MOL1         0.3769
      75    C22     20.702126   23.566960   21.121237 C.3        1 MOL1         0.1018
      76    H36     20.685625   24.615442   20.795224 H          1 MOL1         0.0783
      77    C23     21.237016   22.696411   19.954869 C.3        1 MOL1         0.1043
      78    H37     21.054662   21.639807   20.192664 H          1 MOL1         0.0783
      79    O19     22.656194   22.936525   19.785276 O.3        1 MOL1        -0.3740
      80    C24     20.550715   23.004769   18.605500 C.3        1 MOL1         0.0138
      81    H38     19.472234   22.827010   18.700360 H          1 MOL1         0.0794
      82    H39     20.933730   22.307060   17.848933 H          1 MOL1         0.0794
      83    O20     20.792866   24.355756   18.201483 O.3        1 MOL1        -0.5486
      84    H40     21.768703   24.473521   18.223260 H          1 MOL1         0.3769
      85    C25     24.956811   17.643753   22.144726 C.3        1 MOL1         0.2972
      86    H41     25.604147   16.801229   22.419179 H          1 MOL1         0.0751
      87    O21     23.736310   17.196998   21.517031 O.3        1 MOL1        -0.3740
      88    C26     24.598780   18.477131   23.401738 C.3        1 MOL1         0.1003
      89    H42     25.534956   18.881005   23.808215 H          1 MOL1         0.0783
      90    O22     23.984557   17.631928   24.388976 O.3        1 MOL1        -0.5519
      91    H43     23.383212   18.194458   24.943305 H          1 MOL1         0.3769
      92    C27     23.693536   19.676752   23.019150 C.3        1 MOL1         0.1053
      93    H44     22.717798   19.279156   22.713448 H          1 MOL1         0.0783
      94    O23     23.537751   20.561512   24.137173 O.3        1 MOL1        -0.5519
      95    H45     22.932922   20.107031   24.780630 H          1 MOL1         0.3769
      96    C28     24.279663   20.485112   21.831717 C.3        1 MOL1         0.1018
      97    H46     25.086331   21.124923   22.213429 H          1 MOL1         0.0783
      98    C29     24.818603   19.590294   20.679144 C.3        1 MOL1         0.1043
      99    H47     23.958381   19.168095   20.142906 H          1 MOL1         0.0783
     100    O24     25.631987   18.520196   21.219527 O.3        1 MOL1        -0.3740
     101    C30     25.676491   20.352605   19.644531 C.3        1 MOL1         0.0138
     102    H48     25.043417   21.079708   19.119258 H          1 MOL1         0.0794
     103    H49     26.040196   19.637744   18.894229 H          1 MOL1         0.0794
     104    O25     26.777771   21.016922   20.270755 O.3        1 MOL1        -0.5486
     105    H50     27.288234   20.320401   20.740666 H          1 MOL1         0.3769
     106    C31     21.496127   13.836088   20.732070 C.3        1 MOL1         0.2972
     107    H51     21.082792   12.865162   20.432112 H          1 MOL1         0.0751
     108    O26     20.452611   14.793158   21.017668 O.3        1 MOL1        -0.3740
     109    C32     22.431777   13.689613   21.958948 C.3        1 MOL1         0.1003
     110    H52     23.281142   13.067453   21.647474 H          1 MOL1         0.0783
     111    O27     21.775796   13.056840   23.063271 O.3        1 MOL1        -0.5519
     112    H53     22.430271   13.095446   23.797428 H          1 MOL1         0.3769
     113    C33     22.987983   15.068721   22.382658 C.3        1 MOL1         0.1053
     114    H54     22.147852   15.683705   22.734457 H          1 MOL1         0.0783
     115    O28     23.932037   14.890103   23.444702 O.3        1 MOL1        -0.5519
     116    H55     24.024933   15.776245   23.875901 H          1 MOL1         0.3769
     117    C34     23.650558   15.799407   21.182270 C.3        1 MOL1         0.1018
     118    H56     24.641977   15.369341   20.987614 H          1 MOL1         0.0783
     119    C35     22.802588   15.721076   19.880667 C.3        1 MOL1         0.1043
     120    H57     21.956022   16.411174   19.977362 H          1 MOL1         0.0783
     121    O29     22.305823   14.375127   19.667769 O.3        1 MOL1        -0.3740
     122    C36     23.597659   16.134235   18.622729 C.3        1 MOL1         0.0138
     123    H58     23.969636   17.158893   18.754230 H          1 MOL1         0.0794
     124    H59     22.916613   16.138416   17.761260 H          1 MOL1         0.0794
     125    O30     24.689033   15.239418   18.387774 O.3        1 MOL1        -0.5486
     126    H60     24.299427   14.336985   18.363695 H          1 MOL1         0.3769
     127    C1      20.714412   18.686822   25.558316 C.2        1 MOL1         0.6115
     128    O1      19.912841   18.688744   26.471432 O.co2      1 MOL1        -0.6776
     129    O2      21.891902   18.966338   25.689703 O.co2      1 MOL1        -0.6776
     130    C2      20.216277   18.343426   24.158382 C.3        1 MOL1        -0.2013
     131    H1      19.349652   17.681298   24.264033 H          1 MOL1         0.0727
     132    H2      21.003037   17.771518   23.655136 H          1 MOL1         0.0727
     133    C3      19.825364   19.597224   23.333123 C.3        1 MOL1        -0.1910
     134    H3      19.055379   20.146707   23.890115 H          1 MOL1         0.0729
     135    H4      20.685706   20.272832   23.252409 H          1 MOL1         0.0729
     136    C4      19.286362   19.269501   21.920421 C.3        1 MOL1        -0.1909
     137    H5      18.900757   20.192617   21.469448 H          1 MOL1         0.0729
     138    H6      18.434832   18.582887   22.005787 H          1 MOL1         0.0729
     139    C5      20.352015   18.666838   20.979486 C.3        1 MOL1        -0.1884
     140    H7      21.218670   19.337469   20.924688 H          1 MOL1         0.0729
     141    H8      20.710439   17.712100   21.383348 H          1 MOL1         0.0729
     142    C6      19.793686   18.442037   19.560522 C.3        1 MOL1        -0.2899
     143    H9      18.975103   17.713013   19.578428 H          1 MOL1         0.0741
     144    H10     19.413633   19.379512   19.134844 H          1 MOL1         0.0741
     145    H11     20.574461   18.057955   18.892510 H          1 MOL1         0.0741
@<TRIPOS>BOND
    1     1     2    1
    2     1     3    1
    3     1     4    1
    4     4     5    1
    5     4     6    1
    6     6     7    1
    7     4     8    1
    8     8     9    1
    9     8    10    1
   10    10    11    1
   11     8    12    1
   12    12    13    1
   13    12    14    1
   14    14    15    1
   15     1    16    1
   16    14    16    1
   17    14    17    1
   18    17    18    1
   19    17    19    1
   20    17    20    1
   21    20    21    1
   22    22    23    1
   23    22    24    1
   24    22    25    1
   25    25    26    1
   26    25    27    1
   27    27    28    1
   28    25    29    1
   29    29    30    1
   30    29    31    1
   31    31    32    1
   32     3    33    1
   33    29    33    1
   34    33    34    1
   35    33    35    1
   36    35    36    1
   37    22    37    1
   38    35    37    1
   39    35    38    1
   40    38    39    1
   41    38    40    1
   42    38    41    1
   43    41    42    1
   44    43    44    1
   45    43    45    1
   46    43    46    1
   47    46    47    1
   48    46    48    1
   49    48    49    1
   50    46    50    1
   51    50    51    1
   52    50    52    1
   53    52    53    1
   54    24    54    1
   55    50    54    1
   56    54    55    1
   57    54    56    1
   58    56    57    1
   59    43    58    1
   60    56    58    1
   61    56    59    1
   62    59    60    1
   63    59    61    1
   64    59    62    1
   65    62    63    1
   66    64    65    1
   67    64    66    1
   68    64    67    1
   69    67    68    1
   70    67    69    1
   71    69    70    1
   72    67    71    1
   73    71    72    1
   74    71    73    1
   75    73    74    1
   76    45    75    1
   77    71    75    1
   78    75    76    1
   79    75    77    1
   80    77    78    1
   81    64    79    1
   82    77    79    1
   83    77    80    1
   84    80    81    1
   85    80    82    1
   86    80    83    1
   87    83    84    1
   88    85    86    1
   89    85    87    1
   90    85    88    1
   91    88    89    1
   92    88    90    1
   93    90    91    1
   94    88    92    1
   95    92    93    1
   96    92    94    1
   97    94    95    1
   98    66    96    1
   99    92    96    1
  100    96    97    1
  101    96    98    1
  102    98    99    1
  103    85   100    1
  104    98   100    1
  105    98   101    1
  106   101   102    1
  107   101   103    1
  108   101   104    1
  109   104   105    1
  110   106   107    1
  111    12   108    1
  112   106   108    1
  113   106   109    1
  114   109   110    1
  115   109   111    1
  116   111   112    1
  117   109   113    1
  118   113   114    1
  119   113   115    1
  120   115   116    1
  121    87   117    1
  122   113   117    1
  123   117   118    1
  124   117   119    1
  125   119   120    1
  126   106   121    1
  127   119   121    1
  128   119   122    1
  129   122   123    1
  130   122   124    1
  131   122   125    1
  132   125   126    1
  133   127   128    1
  134   127   129    2
  135   127   130    1
  136   130   131    1
  137   130   132    1
  138   130   133    1
  139   133   134    1
  140   133   135    1
  141   133   136    1
  142   136   137    1
  143   136   138    1
  144   136   139    1
  145   139   140    1
  146   139   141    1
  147   139   142    1
  148   142   143    1
  149   142   144    1
  150   142   145    1
@<TRIPOS>SUBSTRUCTURE
       1 MOL1            1 RESIDUE      1      MOL     
       2 MOL1          145 RESIDUE      1      MOL     
@<SCITEGIC>MOL_PROPERTY
VM2 Rank
SciTegic.value.IntegerValue
6

@<SCITEGIC>MOL_PROPERTY
Conf_Id
SciTegic.value.IntegerValue
24157

@<SCITEGIC>MOL_PROPERTY
Probability
SciTegic.value.DoubleValue
1.90

@<SCITEGIC>MOL_PROPERTY
Sum Probability
SciTegic.value.DoubleValue
17.73

@<SCITEGIC>MOL_PROPERTY
Delta G
SciTegic.value.DoubleValue
0.592

@<SCITEGIC>MOL_PROPERTY
G
SciTegic.value.DoubleValue
489.766

@<SCITEGIC>MOL_PROPERTY
E
SciTegic.value.DoubleValue
302.441

@<SCITEGIC>MOL_PROPERTY
-TS
SciTegic.value.DoubleValue
187.326

@<SCITEGIC>MOL_PROPERTY
U+W
SciTegic.value.DoubleValue
174.564

@<SCITEGIC>MOL_PROPERTY
U
SciTegic.value.DoubleValue
249.834

@<SCITEGIC>MOL_PROPERTY
W
SciTegic.value.DoubleValue
-75.270

@<SCITEGIC>MOL_PROPERTY
W(PB)
SciTegic.value.DoubleValue
-81.418

@<SCITEGIC>MOL_PROPERTY
W(SA)
SciTegic.value.DoubleValue
6.149

@<SCITEGIC>MOL_PROPERTY
Valence
SciTegic.value.DoubleValue
149.617

@<SCITEGIC>MOL_PROPERTY
Coulomb
SciTegic.value.DoubleValue
124.230

@<SCITEGIC>MOL_PROPERTY
VdW
SciTegic.value.DoubleValue
-24.014

@<SCITEGIC>MOL_PROPERTY
VdW6
SciTegic.value.DoubleValue
-177.993

@<SCITEGIC>MOL_PROPERTY
VdW12
SciTegic.value.DoubleValue
153.979

@<SCITEGIC>MOL_PROPERTY
Bond
SciTegic.value.DoubleValue
4.564

@<SCITEGIC>MOL_PROPERTY
Angle
SciTegic.value.DoubleValue
11.718

@<SCITEGIC>MOL_PROPERTY
Pdih
SciTegic.value.DoubleValue
133.334

@<SCITEGIC>MOL_PROPERTY
Idih
SciTegic.value.DoubleValue
0.001

@<SCITEGIC>MOL_PROPERTY
Tether
SciTegic.value.DoubleValue
0.000

@<TRIPOS>MOLECULE
CD_guest-7_vm2_single.mol2 : vm2 host+ligand conformer 7
         145         150           2
SMALL
USER_CHARGES
 
@<TRIPOS>ATOM
       1    C1      16.383094   15.233672   21.709559 C.3        1 MOL1         0.2972
       2    H1      15.322124   15.078815   21.942897 H          1 MOL1         0.0751
       3    O1      16.632471   16.570839   21.228310 O.3        1 MOL1        -0.3740
       4    C2      17.253601   14.967691   22.963167 C.3        1 MOL1         0.1003
       5    H2      17.104658   13.916709   23.243332 H          1 MOL1         0.0783
       6    O2      16.876519   15.797121   24.069129 O.3        1 MOL1        -0.5519
       7    H3      17.630514   15.720290   24.697338 H          1 MOL1         0.3769
       8    C3      18.752997   15.158379   22.645761 C.3        1 MOL1         0.1053
       9    H4      18.930670   16.217695   22.416015 H          1 MOL1         0.0783
      10    O3      19.513697   14.767688   23.794203 O.3        1 MOL1        -0.5519
      11    H5      20.356055   14.378924   23.459539 H          1 MOL1         0.3769
      12    C4      19.174839   14.320212   21.412074 C.3        1 MOL1         0.1018
      13    H6      19.250430   13.265479   21.709301 H          1 MOL1         0.0783
      14    C5      18.178300   14.469378   20.226691 C.3        1 MOL1         0.1043
      15    H7      18.302712   15.472572   19.798950 H          1 MOL1         0.0783
      16    O4      16.812779   14.306136   20.689185 O.3        1 MOL1        -0.3740
      17    C6      18.418311   13.447235   19.093543 C.3        1 MOL1         0.0138
      18    H8      19.407311   13.628506   18.651983 H          1 MOL1         0.0794
      19    H9      17.673108   13.613650   18.304205 H          1 MOL1         0.0794
      20    O5      18.334132   12.104945   19.581241 O.3        1 MOL1        -0.5486
      21    H10     17.443944   12.015765   19.988877 H          1 MOL1         0.3769
      22    C7      14.684594   20.244821   20.968746 C.3        1 MOL1         0.2972
      23    H11     13.977158   21.060226   20.771225 H          1 MOL1         0.0751
      24    O6      15.974870   20.738703   21.374019 O.3        1 MOL1        -0.3740
      25    C8      14.154449   19.317827   22.090304 C.3        1 MOL1         0.1003
      26    H12     13.195632   18.906005   21.749471 H          1 MOL1         0.0783
      27    O7      13.950770   20.040242   23.313012 O.3        1 MOL1        -0.5519
      28    H13     13.749378   19.345540   23.979664 H          1 MOL1         0.3769
      29    C9      15.122021   18.134745   22.336802 C.3        1 MOL1         0.1053
      30    H14     16.050174   18.537029   22.766709 H          1 MOL1         0.0783
      31    O8      14.510530   17.229100   23.262641 O.3        1 MOL1        -0.5519
      32    H15     15.249984   16.692918   23.643274 H          1 MOL1         0.3769
      33    C10     15.478538   17.407460   21.009016 C.3        1 MOL1         0.1018
      34    H16     14.617745   16.816407   20.669030 H          1 MOL1         0.0783
      35    C11     15.868949   18.401226   19.882842 C.3        1 MOL1         0.1043
      36    H17     16.848902   18.839229   20.114066 H          1 MOL1         0.0783
      37    O9      14.860918   19.437296   19.785926 O.3        1 MOL1        -0.3740
      38    C12     15.956902   17.708571   18.506910 C.3        1 MOL1         0.0138
      39    H18     14.975583   17.288323   18.249379 H          1 MOL1         0.0794
      40    H19     16.671907   16.877270   18.564903 H          1 MOL1         0.0794
      41    O10     16.376524   18.645430   17.513012 O.3        1 MOL1        -0.5486
      42    H20     15.774215   19.416536   17.599049 H          1 MOL1         0.3769
      43    C13     18.318708   24.103867   21.657112 C.3        1 MOL1         0.2972
      44    H21     18.739244   25.115300   21.722392 H          1 MOL1         0.0751
      45    O11     19.350262   23.103105   21.535252 O.3        1 MOL1        -0.3740
      46    C14     17.474605   23.804413   22.919647 C.3        1 MOL1         0.1003
      47    H22     16.655642   24.534902   22.947484 H          1 MOL1         0.0783
      48    O12     18.259794   23.931645   24.113173 O.3        1 MOL1        -0.5519
      49    H23     17.699388   23.540947   24.820818 H          1 MOL1         0.3769
      50    C15     16.849468   22.393746   22.842017 C.3        1 MOL1         0.1053
      51    H24     17.660741   21.659356   22.914343 H          1 MOL1         0.0783
      52    O13     15.931031   22.215060   23.927060 O.3        1 MOL1        -0.5519
      53    H25     15.414376   21.395723   23.727225 H          1 MOL1         0.3769
      54    C16     16.111517   22.164720   21.500165 C.3        1 MOL1         0.1018
      55    H26     15.138639   22.671827   21.546461 H          1 MOL1         0.0783
      56    C17     16.914229   22.663134   20.265770 C.3        1 MOL1         0.1043
      57    H27     17.739436   21.960922   20.087790 H          1 MOL1         0.0783
      58    O14     17.444980   23.989067   20.514576 O.3        1 MOL1        -0.3740
      59    C18     16.072047   22.732406   18.972794 C.3        1 MOL1         0.0138
      60    H28     15.739648   21.721197   18.705730 H          1 MOL1         0.0794
      61    H29     16.710712   23.092544   18.155124 H          1 MOL1         0.0794
      62    O15     14.943433   23.595907   19.137855 O.3        1 MOL1        -0.5486
      63    H30     15.304526   24.468790   19.410431 H          1 MOL1         0.3769
      64    C19     23.446714   22.674862   20.985377 C.3        1 MOL1         0.2972
      65    H31     24.502364   22.819693   20.725384 H          1 MOL1         0.0751
      66    O16     23.172883   21.301339   21.325980 O.3        1 MOL1        -0.3740
      67    C20     23.040083   23.603372   22.162299 C.3        1 MOL1         0.1003
      68    H32     23.204303   24.636048   21.829133 H          1 MOL1         0.0783
      69    O17     23.863692   23.355255   23.312486 O.3        1 MOL1        -0.5519
      70    H33     23.650477   22.442211   23.629832 H          1 MOL1         0.3769
      71    C21     21.530205   23.450968   22.490318 C.3        1 MOL1         0.1053
      72    H34     21.371554   22.446312   22.903907 H          1 MOL1         0.0783
      73    O18     21.116486   24.440543   23.441104 O.3        1 MOL1        -0.5519
      74    H35     20.188726   24.213822   23.698100 H          1 MOL1         0.3769
      75    C22     20.664409   23.593765   21.211124 C.3        1 MOL1         0.1018
      76    H36     20.643325   24.648771   20.907176 H          1 MOL1         0.0783
      77    C23     21.199618   22.750013   20.025047 C.3        1 MOL1         0.1043
      78    H37     21.026347   21.687501   20.242613 H          1 MOL1         0.0783
      79    O19     22.616354   23.004926   19.854264 O.3        1 MOL1        -0.3740
      80    C24     20.506072   23.079912   18.684500 C.3        1 MOL1         0.0138
      81    H38     19.429830   22.889252   18.778342 H          1 MOL1         0.0794
      82    H39     20.893609   22.402071   17.912303 H          1 MOL1         0.0794
      83    O20     20.733678   24.441486   18.308347 O.3        1 MOL1        -0.5486
      84    H40     21.708494   24.567640   18.326598 H          1 MOL1         0.3769
      85    C25     24.926102   17.675628   22.177200 C.3        1 MOL1         0.2972
      86    H41     25.571600   16.831988   22.452618 H          1 MOL1         0.0751
      87    O21     23.706453   17.233072   21.547410 O.3        1 MOL1        -0.3740
      88    C26     24.565398   18.507310   23.432868 C.3        1 MOL1         0.1003
      89    H42     25.501133   18.904858   23.846486 H          1 MOL1         0.0783
      90    O22     23.941161   17.660168   24.412348 O.3        1 MOL1        -0.5519
      91    H43     23.342650   18.223825   24.968445 H          1 MOL1         0.3769
      92    C27     23.668790   19.712691   23.046318 C.3        1 MOL1         0.1053
      93    H44     22.691207   19.320332   22.739165 H          1 MOL1         0.0783
      94    O23     23.515052   20.595504   24.165597 O.3        1 MOL1        -0.5519
      95    H45     22.906696   20.141996   24.806735 H          1 MOL1         0.3769
      96    C28     24.260233   20.518184   21.856987 C.3        1 MOL1         0.1018
      97    H46     25.076521   21.150298   22.231450 H          1 MOL1         0.0783
      98    C29     24.786008   19.616487   20.704449 C.3        1 MOL1         0.1043
      99    H47     23.923968   19.200659   20.165680 H          1 MOL1         0.0783
     100    O24     25.602313   18.553334   21.255697 O.3        1 MOL1        -0.3740
     101    C30     25.659870   20.378605   19.686779 C.3        1 MOL1         0.0138
     102    H48     26.538018   20.793065   20.199849 H          1 MOL1         0.0794
     103    H49     25.086996   21.214352   19.265282 H          1 MOL1         0.0794
     104    O25     26.061186   19.495940   18.637099 O.3        1 MOL1        -0.5486
     105    H50     26.399711   18.684577   19.079396 H          1 MOL1         0.3769
     106    C31     21.483531   13.888397   20.677798 C.3        1 MOL1         0.2972
     107    H51     21.068834   12.923957   20.357359 H          1 MOL1         0.0751
     108    O26     20.440739   14.844767   20.966428 O.3        1 MOL1        -0.3740
     109    C32     22.401737   13.722803   21.916652 C.3        1 MOL1         0.1003
     110    H52     23.255854   13.105436   21.608800 H          1 MOL1         0.0783
     111    O27     21.731839   13.076750   23.005273 O.3        1 MOL1        -0.5519
     112    H53     22.376954   13.106692   23.747985 H          1 MOL1         0.3769
     113    C33     22.949232   15.096799   22.367315 C.3        1 MOL1         0.1053
     114    H54     22.102194   15.706878   22.710930 H          1 MOL1         0.0783
     115    O28     23.874568   14.910841   23.444702 O.3        1 MOL1        -0.5519
     116    H55     23.965258   15.795674   23.879183 H          1 MOL1         0.3769
     117    C34     23.630999   15.842305   21.188078 C.3        1 MOL1         0.1018
     118    H56     24.626454   15.416290   21.005578 H          1 MOL1         0.0783
     119    C35     22.806725   15.783291   19.870727 C.3        1 MOL1         0.1043
     120    H57     21.960481   16.474874   19.960861 H          1 MOL1         0.0783
     121    O29     22.309836   14.441517   19.632555 O.3        1 MOL1        -0.3740
     122    C36     23.627729   16.209795   18.633533 C.3        1 MOL1         0.0138
     123    H58     23.996473   17.233519   18.781946 H          1 MOL1         0.0794
     124    H59     22.965086   16.222410   17.757984 H          1 MOL1         0.0794
     125    O30     24.724427   15.317581   18.412825 O.3        1 MOL1        -0.5486
     126    H60     24.335596   14.415765   18.367725 H          1 MOL1         0.3769
     127    C1      20.687058   18.692455   25.581591 C.2        1 MOL1         0.6115
     128    O1      19.889159   18.661476   26.497430 O.co2      1 MOL1        -0.6776
     129    O2      21.856659   19.003959   25.712145 O.co2      1 MOL1        -0.6776
     130    C2      20.193287   18.352461   24.179242 C.3        1 MOL1        -0.2013
     131    H1      19.334879   17.678686   24.278823 H          1 MOL1         0.0727
     132    H2      20.987245   17.794061   23.672161 H          1 MOL1         0.0727
     133    C3      19.788090   19.607779   23.363597 C.3        1 MOL1        -0.1910
     134    H3      19.013579   20.145793   23.925451 H          1 MOL1         0.0729
     135    H4      20.641944   20.291806   23.286484 H          1 MOL1         0.0729
     136    C4      19.250612   19.285224   21.949316 C.3        1 MOL1        -0.1909
     137    H5      18.857537   20.208344   21.504969 H          1 MOL1         0.0729
     138    H6      18.403958   18.591827   22.029649 H          1 MOL1         0.0729
     139    C5      20.320686   18.697834   21.003614 C.3        1 MOL1        -0.1884
     140    H7      21.180966   19.376892   20.950894 H          1 MOL1         0.0729
     141    H8      20.689137   17.743989   21.400582 H          1 MOL1         0.0729
     142    C6      19.761357   18.475890   19.584632 C.3        1 MOL1        -0.2899
     143    H9      18.946210   17.742723   19.599231 H          1 MOL1         0.0741
     144    H10     19.372927   19.412015   19.163223 H          1 MOL1         0.0741
     145    H11     20.542678   18.100407   18.912552 H          1 MOL1         0.0741
@<TRIPOS>BOND
    1     1     2    1
    2     1     3    1
    3     1     4    1
    4     4     5    1
    5     4     6    1
    6     6     7    1
    7     4     8    1
    8     8     9    1
    9     8    10    1
   10    10    11    1
   11     8    12    1
   12    12    13    1
   13    12    14    1
   14    14    15    1
   15     1    16    1
   16    14    16    1
   17    14    17    1
   18    17    18    1
   19    17    19    1
   20    17    20    1
   21    20    21    1
   22    22    23    1
   23    22    24    1
   24    22    25    1
   25    25    26    1
   26    25    27    1
   27    27    28    1
   28    25    29    1
   29    29    30    1
   30    29    31    1
   31    31    32    1
   32     3    33    1
   33    29    33    1
   34    33    34    1
   35    33    35    1
   36    35    36    1
   37    22    37    1
   38    35    37    1
   39    35    38    1
   40    38    39    1
   41    38    40    1
   42    38    41    1
   43    41    42    1
   44    43    44    1
   45    43    45    1
   46    43    46    1
   47    46    47    1
   48    46    48    1
   49    48    49    1
   50    46    50    1
   51    50    51    1
   52    50    52    1
   53    52    53    1
   54    24    54    1
   55    50    54    1
   56    54    55    1
   57    54    56    1
   58    56    57    1
   59    43    58    1
   60    56    58    1
   61    56    59    1
   62    59    60    1
   63    59    61    1
   64    59    62    1
   65    62    63    1
   66    64    65    1
   67    64    66    1
   68    64    67    1
   69    67    68    1
   70    67    69    1
   71    69    70    1
   72    67    71    1
   73    71    72    1
   74    71    73    1
   75    73    74    1
   76    45    75    1
   77    71    75    1
   78    75    76    1
   79    75    77    1
   80    77    78    1
   81    64    79    1
   82    77    79    1
   83    77    80    1
   84    80    81    1
   85    80    82    1
   86    80    83    1
   87    83    84    1
   88    85    86    1
   89    85    87    1
   90    85    88    1
   91    88    89    1
   92    88    90    1
   93    90    91    1
   94    88    92    1
   95    92    93    1
   96    92    94    1
   97    94    95    1
   98    66    96    1
   99    92    96    1
  100    96    97    1
  101    96    98    1
  102    98    99    1
  103    85   100    1
  104    98   100    1
  105    98   101    1
  106   101   102    1
  107   101   103    1
  108   101   104    1
  109   104   105    1
  110   106   107    1
  111    12   108    1
  112   106   108    1
  113   106   109    1
  114   109   110    1
  115   109   111    1
  116   111   112    1
  117   109   113    1
  118   113   114    1
  119   113   115    1
  120   115   116    1
  121    87   117    1
  122   113   117    1
  123   117   118    1
  124   117   119    1
  125   119   120    1
  126   106   121    1
  127   119   121    1
  128   119   122    1
  129   122   123    1
  130   122   124    1
  131   122   125    1
  132   125   126    1
  133   127   128    1
  134   127   129    2
  135   127   130    1
  136   130   131    1
  137   130   132    1
  138   130   133    1
  139   133   134    1
  140   133   135    1
  141   133   136    1
  142   136   137    1
  143   136   138    1
  144   136   139    1
  145   139   140    1
  146   139   141    1
  147   139   142    1
  148   142   143    1
  149   142   144    1
  150   142   145    1
@<TRIPOS>SUBSTRUCTURE
       1 MOL1            1 RESIDUE      1      MOL     
       2 MOL1          145 RESIDUE      1      MOL     
@<SCITEGIC>MOL_PROPERTY
VM2 Rank
SciTegic.value.IntegerValue
7

@<SCITEGIC>MOL_PROPERTY
Conf_Id
SciTegic.value.IntegerValue
24056

@<SCITEGIC>MOL_PROPERTY
Probability
SciTegic.value.DoubleValue
1.88

@<SCITEGIC>MOL_PROPERTY
Sum Probability
SciTegic.value.DoubleValue
19.60

@<SCITEGIC>MOL_PROPERTY
Delta G
SciTegic.value.DoubleValue
0.599

@<SCITEGIC>MOL_PROPERTY
G
SciTegic.value.DoubleValue
489.773

@<SCITEGIC>MOL_PROPERTY
E
SciTegic.value.DoubleValue
302.548

@<SCITEGIC>MOL_PROPERTY
-TS
SciTegic.value.DoubleValue
187.225

@<SCITEGIC>MOL_PROPERTY
U+W
SciTegic.value.DoubleValue
174.671

@<SCITEGIC>MOL_PROPERTY
U
SciTegic.value.DoubleValue
249.917

@<SCITEGIC>MOL_PROPERTY
W
SciTegic.value.DoubleValue
-75.246

@<SCITEGIC>MOL_PROPERTY
W(PB)
SciTegic.value.DoubleValue
-81.336

@<SCITEGIC>MOL_PROPERTY
W(SA)
SciTegic.value.DoubleValue
6.090

@<SCITEGIC>MOL_PROPERTY
Valence
SciTegic.value.DoubleValue
149.877

@<SCITEGIC>MOL_PROPERTY
Coulomb
SciTegic.value.DoubleValue
124.571

@<SCITEGIC>MOL_PROPERTY
VdW
SciTegic.value.DoubleValue
-24.531

@<SCITEGIC>MOL_PROPERTY
VdW6
SciTegic.value.DoubleValue
-178.158

@<SCITEGIC>MOL_PROPERTY
VdW12
SciTegic.value.DoubleValue
153.627

@<SCITEGIC>MOL_PROPERTY
Bond
SciTegic.value.DoubleValue
4.543

@<SCITEGIC>MOL_PROPERTY
Angle
SciTegic.value.DoubleValue
11.724

@<SCITEGIC>MOL_PROPERTY
Pdih
SciTegic.value.DoubleValue
133.608

@<SCITEGIC>MOL_PROPERTY
Idih
SciTegic.value.DoubleValue
0.001

@<SCITEGIC>MOL_PROPERTY
Tether
SciTegic.value.DoubleValue
0.000

@<TRIPOS>MOLECULE
CD_guest-7_vm2_single.mol2 : vm2 host+ligand conformer 8
         145         150           2
SMALL
USER_CHARGES
 
@<TRIPOS>ATOM
       1    C1      16.354088   15.174267   21.676233 C.3        1 MOL1         0.2972
       2    H1      15.279670   15.060315   21.868322 H          1 MOL1         0.0751
       3    O1      16.684371   16.523078   21.283260 O.3        1 MOL1        -0.3740
       4    C2      17.164603   14.799735   22.940363 C.3        1 MOL1         0.1003
       5    H2      16.955385   13.744453   23.159112 H          1 MOL1         0.0783
       6    O2      16.784199   15.592034   24.072612 O.3        1 MOL1        -0.5519
       7    H3      17.507608   15.448843   24.724782 H          1 MOL1         0.3769
       8    C3      18.682389   14.933558   22.685229 C.3        1 MOL1         0.1053
       9    H4      18.918773   15.994785   22.537743 H          1 MOL1         0.0783
      10    O3      19.378853   14.429953   23.829671 O.3        1 MOL1        -0.5519
      11    H5      20.275351   14.154114   23.522569 H          1 MOL1         0.3769
      12    C4      19.117751   14.166257   21.409470 C.3        1 MOL1         0.1018
      13    H6      19.171657   13.093913   21.640882 H          1 MOL1         0.0783
      14    C5      18.158594   14.407842   20.208402 C.3        1 MOL1         0.1043
      15    H7      18.333261   15.423824   19.830602 H          1 MOL1         0.0783
      16    O4      16.775476   14.279318   20.624575 O.3        1 MOL1        -0.3740
      17    C6      18.392935   13.429182   19.036551 C.3        1 MOL1         0.0138
      18    H8      19.404572   13.583906   18.638103 H          1 MOL1         0.0794
      19    H9      17.684252   13.666352   18.231695 H          1 MOL1         0.0794
      20    O5      18.230877   12.071480   19.457454 O.3        1 MOL1        -0.5486
      21    H10     17.324275   12.006996   19.832475 H          1 MOL1         0.3769
      22    C7      14.841274   20.259739   20.935583 C.3        1 MOL1         0.2972
      23    H11     14.144398   21.076166   20.706724 H          1 MOL1         0.0751
      24    O6      16.119131   20.756592   21.373624 O.3        1 MOL1        -0.3740
      25    C8      14.270628   19.348522   22.052488 C.3        1 MOL1         0.1003
      26    H12     13.311477   18.952816   21.694025 H          1 MOL1         0.0783
      27    O7      14.055219   20.083733   23.265649 O.3        1 MOL1        -0.5519
      28    H13     13.828299   19.397718   23.933096 H          1 MOL1         0.3769
      29    C9      15.207487   18.147390   22.331240 C.3        1 MOL1         0.1053
      30    H14     16.137699   18.534303   22.771450 H          1 MOL1         0.0783
      31    O8      14.562771   17.262675   23.255259 O.3        1 MOL1        -0.5519
      32    H15     15.274479   16.675579   23.613263 H          1 MOL1         0.3769
      33    C10     15.570728   17.400253   21.018652 C.3        1 MOL1         0.1018
      34    H16     14.698447   16.841465   20.654363 H          1 MOL1         0.0783
      35    C11     16.030628   18.383419   19.910865 C.3        1 MOL1         0.1043
      36    H17     16.999561   18.805003   20.203547 H          1 MOL1         0.0783
      37    O9      15.056264   19.445329   19.763649 O.3        1 MOL1        -0.3740
      38    C12     16.202462   17.709166   18.531872 C.3        1 MOL1         0.0138
      39    H18     16.951163   16.910565   18.613204 H          1 MOL1         0.0794
      40    H19     16.591112   18.452476   17.823167 H          1 MOL1         0.0794
      41    O10     14.960692   17.176783   18.061452 O.3        1 MOL1        -0.5486
      42    H20     14.316192   17.918047   18.101364 H          1 MOL1         0.3769
      43    C13     18.399363   24.181578   21.646198 C.3        1 MOL1         0.2972
      44    H21     18.789236   25.204825   21.716362 H          1 MOL1         0.0751
      45    O11     19.456453   23.215604   21.480329 O.3        1 MOL1        -0.3740
      46    C14     17.599467   23.832632   22.925529 C.3        1 MOL1         0.1003
      47    H22     16.759951   24.537006   22.989930 H          1 MOL1         0.0783
      48    O12     18.411513   23.959063   24.100965 O.3        1 MOL1        -0.5519
      49    H23     17.878287   23.542849   24.815023 H          1 MOL1         0.3769
      50    C15     17.015639   22.405014   22.837051 C.3        1 MOL1         0.1053
      51    H24     17.851552   21.695379   22.868145 H          1 MOL1         0.0783
      52    O13     16.136307   22.175503   23.944694 O.3        1 MOL1        -0.5519
      53    H25     15.607731   21.370214   23.721901 H          1 MOL1         0.3769
      54    C16     16.243021   22.182981   21.514181 C.3        1 MOL1         0.1018
      55    H26     15.264702   22.674867   21.597243 H          1 MOL1         0.0783
      56    C17     17.005103   22.716621   20.267980 C.3        1 MOL1         0.1043
      57    H27     17.847460   22.041894   20.064006 H          1 MOL1         0.0783
      58    O14     17.500820   24.055058   20.523904 O.3        1 MOL1        -0.3740
      59    C18     16.135118   22.779526   18.992887 C.3        1 MOL1         0.0138
      60    H28     15.834638   21.762312   18.710560 H          1 MOL1         0.0794
      61    H29     16.743808   23.178787   18.170601 H          1 MOL1         0.0794
      62    O15     14.979478   23.597944   19.196600 O.3        1 MOL1        -0.5486
      63    H30     15.313879   24.479384   19.475493 H          1 MOL1         0.3769
      64    C19     23.510719   22.754215   20.868362 C.3        1 MOL1         0.2972
      65    H31     24.574124   22.850530   20.614499 H          1 MOL1         0.0751
      66    O16     23.156340   21.378972   21.128128 O.3        1 MOL1        -0.3740
      67    C20     23.147317   23.645066   22.089107 C.3        1 MOL1         0.1003
      68    H32     23.331809   24.685811   21.793788 H          1 MOL1         0.0783
      69    O17     23.974560   23.337950   23.221624 O.3        1 MOL1        -0.5519
      70    H33     23.686242   22.450057   23.549976 H          1 MOL1         0.3769
      71    C21     21.638732   23.512314   22.427872 C.3        1 MOL1         0.1053
      72    H34     21.460078   22.489614   22.786042 H          1 MOL1         0.0783
      73    O18     21.259725   24.455241   23.438359 O.3        1 MOL1        -0.5519
      74    H35     20.326998   24.241378   23.688164 H          1 MOL1         0.3769
      75    C22     20.758797   23.746203   21.172456 C.3        1 MOL1         0.1018
      76    H36     20.724630   24.821608   20.953221 H          1 MOL1         0.0783
      77    C23     21.272930   22.997212   19.914176 C.3        1 MOL1         0.1043
      78    H37     21.059854   21.928311   20.035583 H          1 MOL1         0.0783
      79    O19     22.700220   23.201673   19.762140 O.3        1 MOL1        -0.3740
      80    C24     20.589408   23.467819   18.611429 C.3        1 MOL1         0.0138
      81    H38     19.506613   23.308663   18.695777 H          1 MOL1         0.0794
      82    H39     20.949655   22.846649   17.780600 H          1 MOL1         0.0794
      83    O20     20.866296   24.847923   18.355232 O.3        1 MOL1        -0.5486
      84    H40     21.845363   24.936023   18.373350 H          1 MOL1         0.3769
      85    C25     24.756279   17.687653   22.117269 C.3        1 MOL1         0.2972
      86    H41     25.390687   16.858419   22.454587 H          1 MOL1         0.0751
      87    O21     23.595697   17.208865   21.403992 O.3        1 MOL1        -0.3740
      88    C26     24.296030   18.535307   23.333307 C.3        1 MOL1         0.1003
      89    H42     25.200359   18.918923   23.823039 H          1 MOL1         0.0783
      90    O22     23.575823   17.709590   24.265794 O.3        1 MOL1        -0.5519
      91    H43     22.977173   18.289624   24.805130 H          1 MOL1         0.3769
      92    C27     23.458840   19.758341   22.876173 C.3        1 MOL1         0.1053
      93    H44     22.499225   19.394203   22.489847 H          1 MOL1         0.0783
      94    O23     23.249160   20.644387   23.984091 O.3        1 MOL1        -0.5519
      95    H45     22.630109   20.186769   24.610281 H          1 MOL1         0.3769
      96    C28     24.161641   20.544717   21.738360 C.3        1 MOL1         0.1018
      97    H46     24.976118   21.137730   22.174453 H          1 MOL1         0.0783
      98    C29     24.730442   19.621073   20.626763 C.3        1 MOL1         0.1043
      99    H47     23.887723   19.205137   20.058474 H          1 MOL1         0.0783
     100    O24     25.496415   18.549125   21.227611 O.3        1 MOL1        -0.3740
     101    C30     25.651500   20.352189   19.624415 C.3        1 MOL1         0.0138
     102    H48     25.060318   21.092738   19.069672 H          1 MOL1         0.0794
     103    H49     26.026899   19.622472   18.894488 H          1 MOL1         0.0794
     104    O25     26.742821   20.991942   20.292513 O.3        1 MOL1        -0.5486
     105    H50     27.208301   20.286970   20.795398 H          1 MOL1         0.3769
     106    C31     21.453062   13.754134   20.739607 C.3        1 MOL1         0.2972
     107    H51     21.053336   12.767768   20.471054 H          1 MOL1         0.0751
     108    O26     20.398869   14.700326   21.021756 O.3        1 MOL1        -0.3740
     109    C32     22.406651   13.665302   21.957549 C.3        1 MOL1         0.1003
     110    H52     23.274675   13.067470   21.649947 H          1 MOL1         0.0783
     111    O27     21.787173   13.035526   23.084296 O.3        1 MOL1        -0.5519
     112    H53     22.444004   13.127576   23.811598 H          1 MOL1         0.3769
     113    C33     22.914630   15.074388   22.342979 C.3        1 MOL1         0.1053
     114    H54     22.053823   15.669471   22.679658 H          1 MOL1         0.0783
     115    O28     23.861175   14.956051   23.411392 O.3        1 MOL1        -0.5519
     116    H55     23.866935   15.839892   23.857029 H          1 MOL1         0.3769
     117    C34     23.550596   15.795160   21.120086 C.3        1 MOL1         0.1018
     118    H56     24.556148   15.392998   20.938823 H          1 MOL1         0.0783
     119    C35     22.708544   15.643465   19.819458 C.3        1 MOL1         0.1043
     120    H57     21.842762   16.311098   19.886363 H          1 MOL1         0.0783
     121    O29     22.242957   14.279922   19.652990 O.3        1 MOL1        -0.3740
     122    C36     23.496332   16.032380   18.549266 C.3        1 MOL1         0.0138
     123    H58     23.841523   17.070457   18.645954 H          1 MOL1         0.0794
     124    H59     22.818028   15.989172   17.686721 H          1 MOL1         0.0794
     125    O30     24.610617   15.157742   18.347978 O.3        1 MOL1        -0.5486
     126    H60     24.244031   14.245391   18.354357 H          1 MOL1         0.3769
     127    C1      20.325591   19.235465   25.478007 C.2        1 MOL1         0.6115
     128    O1      21.535894   19.155153   25.589734 O.co2      1 MOL1        -0.6776
     129    O2      19.537523   18.866552   26.325764 O.co2      1 MOL1        -0.6776
     130    C2      19.777718   19.842338   24.190762 C.3        1 MOL1        -0.2013
     131    H1      20.404304   20.706065   23.943168 H          1 MOL1         0.0727
     132    H2      18.768154   20.222173   24.384952 H          1 MOL1         0.0727
     133    C3      19.754176   18.834203   23.015020 C.3        1 MOL1        -0.1910
     134    H3      20.667901   18.225183   23.042100 H          1 MOL1         0.0729
     135    H4      18.913098   18.142444   23.151834 H          1 MOL1         0.0729
     136    C4      19.644893   19.534977   21.643414 C.3        1 MOL1        -0.1909
     137    H5      20.405798   20.322606   21.572392 H          1 MOL1         0.0729
     138    H6      18.668239   20.023217   21.554538 H          1 MOL1         0.0729
     139    C5      19.840100   18.538381   20.484961 C.3        1 MOL1        -0.1884
     140    H7      20.826936   18.072009   20.584551 H          1 MOL1         0.0729
     141    H8      19.097370   17.733367   20.558051 H          1 MOL1         0.0729
     142    C6      19.738720   19.222546   19.106851 C.3        1 MOL1        -0.2899
     143    H9      20.553034   19.944614   18.970955 H          1 MOL1         0.0741
     144    H10     19.810716   18.479560   18.302484 H          1 MOL1         0.0741
     145    H11     18.786039   19.755241   18.996307 H          1 MOL1         0.0741
@<TRIPOS>BOND
    1     1     2    1
    2     1     3    1
    3     1     4    1
    4     4     5    1
    5     4     6    1
    6     6     7    1
    7     4     8    1
    8     8     9    1
    9     8    10    1
   10    10    11    1
   11     8    12    1
   12    12    13    1
   13    12    14    1
   14    14    15    1
   15     1    16    1
   16    14    16    1
   17    14    17    1
   18    17    18    1
   19    17    19    1
   20    17    20    1
   21    20    21    1
   22    22    23    1
   23    22    24    1
   24    22    25    1
   25    25    26    1
   26    25    27    1
   27    27    28    1
   28    25    29    1
   29    29    30    1
   30    29    31    1
   31    31    32    1
   32     3    33    1
   33    29    33    1
   34    33    34    1
   35    33    35    1
   36    35    36    1
   37    22    37    1
   38    35    37    1
   39    35    38    1
   40    38    39    1
   41    38    40    1
   42    38    41    1
   43    41    42    1
   44    43    44    1
   45    43    45    1
   46    43    46    1
   47    46    47    1
   48    46    48    1
   49    48    49    1
   50    46    50    1
   51    50    51    1
   52    50    52    1
   53    52    53    1
   54    24    54    1
   55    50    54    1
   56    54    55    1
   57    54    56    1
   58    56    57    1
   59    43    58    1
   60    56    58    1
   61    56    59    1
   62    59    60    1
   63    59    61    1
   64    59    62    1
   65    62    63    1
   66    64    65    1
   67    64    66    1
   68    64    67    1
   69    67    68    1
   70    67    69    1
   71    69    70    1
   72    67    71    1
   73    71    72    1
   74    71    73    1
   75    73    74    1
   76    45    75    1
   77    71    75    1
   78    75    76    1
   79    75    77    1
   80    77    78    1
   81    64    79    1
   82    77    79    1
   83    77    80    1
   84    80    81    1
   85    80    82    1
   86    80    83    1
   87    83    84    1
   88    85    86    1
   89    85    87    1
   90    85    88    1
   91    88    89    1
   92    88    90    1
   93    90    91    1
   94    88    92    1
   95    92    93    1
   96    92    94    1
   97    94    95    1
   98    66    96    1
   99    92    96    1
  100    96    97    1
  101    96    98    1
  102    98    99    1
  103    85   100    1
  104    98   100    1
  105    98   101    1
  106   101   102    1
  107   101   103    1
  108   101   104    1
  109   104   105    1
  110   106   107    1
  111    12   108    1
  112   106   108    1
  113   106   109    1
  114   109   110    1
  115   109   111    1
  116   111   112    1
  117   109   113    1
  118   113   114    1
  119   113   115    1
  120   115   116    1
  121    87   117    1
  122   113   117    1
  123   117   118    1
  124   117   119    1
  125   119   120    1
  126   106   121    1
  127   119   121    1
  128   119   122    1
  129   122   123    1
  130   122   124    1
  131   122   125    1
  132   125   126    1
  133   127   128    1
  134   127   129    2
  135   127   130    1
  136   130   131    1
  137   130   132    1
  138   130   133    1
  139   133   134    1
  140   133   135    1
  141   133   136    1
  142   136   137    1
  143   136   138    1
  144   136   139    1
  145   139   140    1
  146   139   141    1
  147   139   142    1
  148   142   143    1
  149   142   144    1
  150   142   145    1
@<TRIPOS>SUBSTRUCTURE
       1 MOL1            1 RESIDUE      1      MOL     
       2 MOL1          145 RESIDUE      1      MOL     
@<SCITEGIC>MOL_PROPERTY
VM2 Rank
SciTegic.value.IntegerValue
8

@<SCITEGIC>MOL_PROPERTY
Conf_Id
SciTegic.value.IntegerValue
17137

@<SCITEGIC>MOL_PROPERTY
Probability
SciTegic.value.DoubleValue
1.86

@<SCITEGIC>MOL_PROPERTY
Sum Probability
SciTegic.value.DoubleValue
21.47

@<SCITEGIC>MOL_PROPERTY
Delta G
SciTegic.value.DoubleValue
0.603

@<SCITEGIC>MOL_PROPERTY
G
SciTegic.value.DoubleValue
489.778

@<SCITEGIC>MOL_PROPERTY
E
SciTegic.value.DoubleValue
303.434

@<SCITEGIC>MOL_PROPERTY
-TS
SciTegic.value.DoubleValue
186.344

@<SCITEGIC>MOL_PROPERTY
U+W
SciTegic.value.DoubleValue
175.557

@<SCITEGIC>MOL_PROPERTY
U
SciTegic.value.DoubleValue
249.409

@<SCITEGIC>MOL_PROPERTY
W
SciTegic.value.DoubleValue
-73.851

@<SCITEGIC>MOL_PROPERTY
W(PB)
SciTegic.value.DoubleValue
-80.024

@<SCITEGIC>MOL_PROPERTY
W(SA)
SciTegic.value.DoubleValue
6.172

@<SCITEGIC>MOL_PROPERTY
Valence
SciTegic.value.DoubleValue
149.343

@<SCITEGIC>MOL_PROPERTY
Coulomb
SciTegic.value.DoubleValue
122.724

@<SCITEGIC>MOL_PROPERTY
VdW
SciTegic.value.DoubleValue
-22.659

@<SCITEGIC>MOL_PROPERTY
VdW6
SciTegic.value.DoubleValue
-176.319

@<SCITEGIC>MOL_PROPERTY
VdW12
SciTegic.value.DoubleValue
153.660

@<SCITEGIC>MOL_PROPERTY
Bond
SciTegic.value.DoubleValue
4.615

@<SCITEGIC>MOL_PROPERTY
Angle
SciTegic.value.DoubleValue
11.703

@<SCITEGIC>MOL_PROPERTY
Pdih
SciTegic.value.DoubleValue
133.025

@<SCITEGIC>MOL_PROPERTY
Idih
SciTegic.value.DoubleValue
0.000

@<SCITEGIC>MOL_PROPERTY
Tether
SciTegic.value.DoubleValue
0.000

