@<TRIPOS>MOLECULE
CD_guest-1_vm2_single.mol2 : vm2 host+ligand conformer 1
         143         148           2
SMALL
USER_CHARGES
 
@<TRIPOS>ATOM
       1    C1      16.418664   15.340358   21.829147 C.3        1 MOL1         0.2972
       2    H1      15.365369   15.242537   22.121091 H          1 MOL1         0.0751
       3    O1      16.669928   16.587007   21.148883 O.3        1 MOL1        -0.3740
       4    C2      17.336166   15.255037   23.076177 C.3        1 MOL1         0.1003
       5    H2      17.167352   14.271805   23.534454 H          1 MOL1         0.0783
       6    O2      17.029336   16.280122   24.035135 O.3        1 MOL1        -0.5519
       7    H3      16.122404   16.611137   23.827073 H          1 MOL1         0.3769
       8    C3      18.824174   15.348825   22.668749 C.3        1 MOL1         0.1053
       9    H4      19.005719   16.362583   22.287059 H          1 MOL1         0.0783
      10    O3      19.633363   15.115655   23.825160 O.3        1 MOL1        -0.5519
      11    H5      19.230787   15.679473   24.524058 H          1 MOL1         0.3769
      12    C4      19.179531   14.338773   21.547237 C.3        1 MOL1         0.1018
      13    H6      19.262015   13.334938   21.984321 H          1 MOL1         0.0783
      14    C5      18.131845   14.331643   20.398387 C.3        1 MOL1         0.1043
      15    H7      18.247671   15.258933   19.821572 H          1 MOL1         0.0783
      16    O4      16.790043   14.263569   20.942364 O.3        1 MOL1        -0.3740
      17    C6      18.305903   13.149586   19.418904 C.3        1 MOL1         0.0138
      18    H8      19.272766   13.248310   18.907800 H          1 MOL1         0.0794
      19    H9      17.523295   13.208938   18.650689 H          1 MOL1         0.0794
      20    O5      18.236216   11.895181   20.103006 O.3        1 MOL1        -0.5486
      21    H10     17.364429   11.876672   20.557223 H          1 MOL1         0.3769
      22    C7      14.821716   20.255468   20.571176 C.3        1 MOL1         0.2972
      23    H11     14.160937   21.087975   20.297240 H          1 MOL1         0.0751
      24    O6      16.142533   20.720463   20.916684 O.3        1 MOL1        -0.3740
      25    C8      14.227396   19.427205   21.742303 C.3        1 MOL1         0.1003
      26    H12     13.274995   19.012580   21.386885 H          1 MOL1         0.0783
      27    O7      13.972463   20.232196   22.903006 O.3        1 MOL1        -0.5519
      28    H13     14.849894   20.560900   23.224464 H          1 MOL1         0.3769
      29    C9      15.153946   18.240478   22.103187 C.3        1 MOL1         0.1053
      30    H14     16.084430   18.650372   22.520818 H          1 MOL1         0.0783
      31    O8      14.495796   17.430355   23.083758 O.3        1 MOL1        -0.5519
      32    H15     14.054141   18.070759   23.687304 H          1 MOL1         0.3769
      33    C10     15.518584   17.400287   20.845544 C.3        1 MOL1         0.1018
      34    H16     14.660808   16.783208   20.546359 H          1 MOL1         0.0783
      35    C11     15.937018   18.289526   19.645787 C.3        1 MOL1         0.1043
      36    H17     16.924982   18.713190   19.859396 H          1 MOL1         0.0783
      37    O9      14.967420   19.350241   19.456839 O.3        1 MOL1        -0.3740
      38    C12     16.034503   17.493327   18.328494 C.3        1 MOL1         0.0138
      39    H18     15.029825   17.174813   18.019757 H          1 MOL1         0.0794
      40    H19     16.635663   16.589488   18.493944 H          1 MOL1         0.0794
      41    O10     16.643220   18.300681   17.318559 O.3        1 MOL1        -0.5486
      42    H20     16.116072   19.128969   17.274359 H          1 MOL1         0.3769
      43    C13     18.415030   23.947334   22.028305 C.3        1 MOL1         0.2972
      44    H21     18.845650   24.898556   22.366633 H          1 MOL1         0.0751
      45    O11     19.393416   23.118499   21.369448 O.3        1 MOL1        -0.3740
      46    C14     17.817414   23.161996   23.223485 C.3        1 MOL1         0.1003
      47    H22     17.004740   23.771515   23.639781 H          1 MOL1         0.0783
      48    O12     18.795931   22.918768   24.246859 O.3        1 MOL1        -0.5519
      49    H23     19.588128   23.468306   24.031254 H          1 MOL1         0.3769
      50    C15     17.218943   21.821231   22.742281 C.3        1 MOL1         0.1053
      51    H24     18.050529   21.187549   22.408004 H          1 MOL1         0.0783
      52    O13     16.544584   21.190675   23.835246 O.3        1 MOL1        -0.5519
      53    H25     17.175112   21.261435   24.587385 H          1 MOL1         0.3769
      54    C16     16.246644   22.010026   21.549197 C.3        1 MOL1         0.1018
      55    H26     15.280016   22.362334   21.932627 H          1 MOL1         0.0783
      56    C17     16.781814   22.997678   20.471771 C.3        1 MOL1         0.1043
      57    H27     17.564911   22.485155   19.897490 H          1 MOL1         0.0783
      58    O14     17.338188   24.182437   21.096768 O.3        1 MOL1        -0.3740
      59    C18     15.701001   23.456101   19.467664 C.3        1 MOL1         0.0138
      60    H28     15.355036   22.587096   18.892624 H          1 MOL1         0.0794
      61    H29     16.155541   24.157790   18.755467 H          1 MOL1         0.0794
      62    O15     14.599048   24.074068   20.138292 O.3        1 MOL1        -0.5486
      63    H30     14.973104   24.826458   20.648853 H          1 MOL1         0.3769
      64    C19     23.477241   22.752054   20.878371 C.3        1 MOL1         0.2972
      65    H31     24.542427   22.877897   20.645271 H          1 MOL1         0.0751
      66    O16     23.151368   21.364861   21.112486 O.3        1 MOL1        -0.3740
      67    C20     23.066636   23.619926   22.099803 C.3        1 MOL1         0.1003
      68    H32     23.247300   24.666124   21.820318 H          1 MOL1         0.0783
      69    O17     23.841400   23.317641   23.269466 O.3        1 MOL1        -0.5519
      70    H33     23.617272   22.388143   23.528264 H          1 MOL1         0.3769
      71    C21     21.557104   23.466781   22.403576 C.3        1 MOL1         0.1053
      72    H34     21.384719   22.438478   22.751487 H          1 MOL1         0.0783
      73    O18     21.196607   24.395441   23.431980 O.3        1 MOL1        -0.5519
      74    H35     21.948775   24.376903   24.066926 H          1 MOL1         0.3769
      75    C22     20.690468   23.697202   21.134645 C.3        1 MOL1         0.1018
      76    H36     20.621577   24.770688   20.913428 H          1 MOL1         0.0783
      77    C23     21.250193   22.960645   19.890928 C.3        1 MOL1         0.1043
      78    H37     21.050700   21.891498   20.016040 H          1 MOL1         0.0783
      79    O19     22.674313   23.199795   19.766860 O.3        1 MOL1        -0.3740
      80    C24     20.577507   23.418387   18.580980 C.3        1 MOL1         0.0138
      81    H38     20.832076   24.469196   18.388486 H          1 MOL1         0.0794
      82    H39     19.487075   23.352968   18.691076 H          1 MOL1         0.0794
      83    O20     21.007842   22.588287   17.500081 O.3        1 MOL1        -0.5486
      84    H40     21.988995   22.635369   17.496492 H          1 MOL1         0.3769
      85    C25     24.795934   17.703307   22.151458 C.3        1 MOL1         0.2972
      86    H41     25.430404   16.879755   22.503544 H          1 MOL1         0.0751
      87    O21     23.654764   17.218877   21.415718 O.3        1 MOL1        -0.3740
      88    C26     24.305711   18.559943   23.348733 C.3        1 MOL1         0.1003
      89    H42     25.198923   18.965133   23.841948 H          1 MOL1         0.0783
      90    O22     23.558953   17.780937   24.296996 O.3        1 MOL1        -0.5519
      91    H43     23.740880   16.829570   24.103679 H          1 MOL1         0.3769
      92    C27     23.446097   19.747124   22.859263 C.3        1 MOL1         0.1053
      93    H44     22.517747   19.337477   22.441830 H          1 MOL1         0.0783
      94    O23     23.144927   20.593205   23.973097 O.3        1 MOL1        -0.5519
      95    H45     22.853389   19.974142   24.680228 H          1 MOL1         0.3769
      96    C28     24.161680   20.556172   21.748677 C.3        1 MOL1         0.1018
      97    H46     24.948003   21.167733   22.210244 H          1 MOL1         0.0783
      98    C29     24.785088   19.642731   20.655560 C.3        1 MOL1         0.1043
      99    H47     23.970506   19.216799   20.055711 H          1 MOL1         0.0783
     100    O24     25.543890   18.572907   21.274392 O.3        1 MOL1        -0.3740
     101    C30     25.728569   20.393903   19.689975 C.3        1 MOL1         0.0138
     102    H48     25.145309   21.128362   19.119014 H          1 MOL1         0.0794
     103    H49     26.142447   19.675379   18.969833 H          1 MOL1         0.0794
     104    O25     26.783605   21.048268   20.400302 O.3        1 MOL1        -0.5486
     105    H50     27.253949   20.347287   20.904212 H          1 MOL1         0.3769
     106    C31     21.465389   13.799792   20.789137 C.3        1 MOL1         0.2972
     107    H51     21.050685   12.815649   20.535426 H          1 MOL1         0.0751
     108    O26     20.423301   14.783341   20.972829 O.3        1 MOL1        -0.3740
     109    C32     22.360571   13.726435   22.054908 C.3        1 MOL1         0.1003
     110    H52     23.207591   13.072880   21.808395 H          1 MOL1         0.0783
     111    O27     21.666484   13.172087   23.181813 O.3        1 MOL1        -0.5519
     112    H53     20.953263   13.815779   23.422517 H          1 MOL1         0.3769
     113    C33     22.926475   15.124552   22.402838 C.3        1 MOL1         0.1053
     114    H54     22.088047   15.759354   22.722132 H          1 MOL1         0.0783
     115    O28     23.867795   14.988459   23.473299 O.3        1 MOL1        -0.5519
     116    H55     23.466432   14.328378   24.083505 H          1 MOL1         0.3769
     117    C34     23.597271   15.798839   21.172835 C.3        1 MOL1         0.1018
     118    H56     24.598674   15.375774   21.016616 H          1 MOL1         0.0783
     119    C35     22.779065   15.635678   19.864209 C.3        1 MOL1         0.1043
     120    H57     21.917892   16.310823   19.912210 H          1 MOL1         0.0783
     121    O29     22.318400   14.269221   19.723436 O.3        1 MOL1        -0.3740
     122    C36     23.611862   15.999602   18.616091 C.3        1 MOL1         0.0138
     123    H58     24.385532   15.235719   18.460602 H          1 MOL1         0.0794
     124    H59     24.121031   16.957147   18.789541 H          1 MOL1         0.0794
     125    O30     22.765711   16.102803   17.468456 O.3        1 MOL1        -0.5486
     126    H60     22.294674   15.241966   17.400086 H          1 MOL1         0.3769
     127    N1      22.096217   18.816242   16.558648 N.4        1 MOL1        -0.5891
     128    H1      22.850351   19.483484   16.739616 H          1 MOL1         0.3726
     129    H2      21.932902   18.808703   15.547612 H          1 MOL1         0.3726
     130    H3      22.444071   17.875487   16.811369 H          1 MOL1         0.3726
     131    C1      20.836898   19.155119   17.329234 C.3        1 MOL1         0.0314
     132    H4      20.081255   18.407500   17.072282 H          1 MOL1         0.0999
     133    H5      20.479328   20.134912   16.999002 H          1 MOL1         0.0999
     134    C2      21.052957   19.165310   18.851862 C.3        1 MOL1        -0.1308
     135    H6      21.601243   18.265533   19.143918 H          1 MOL1         0.1025
     136    H7      21.684825   20.017308   19.127644 H          1 MOL1         0.1025
     137    C3      19.709603   19.210401   19.610576 C.3        1 MOL1        -0.1243
     138    H8      19.096489   18.353373   19.298426 H          1 MOL1         0.1025
     139    H9      19.152126   20.117449   19.335506 H          1 MOL1         0.1025
     140    C4      19.901396   19.162152   21.141400 C.3        1 MOL1        -0.2258
     141    H10     18.929789   19.115545   21.650570 H          1 MOL1         0.1036
     142    H11     20.429122   20.054427   21.502890 H          1 MOL1         0.1036
     143    H12     20.477371   18.276202   21.440587 H          1 MOL1         0.1036
@<TRIPOS>BOND
    1     1     2    1
    2     1     3    1
    3     1     4    1
    4     4     5    1
    5     4     6    1
    6     6     7    1
    7     4     8    1
    8     8     9    1
    9     8    10    1
   10    10    11    1
   11     8    12    1
   12    12    13    1
   13    12    14    1
   14    14    15    1
   15     1    16    1
   16    14    16    1
   17    14    17    1
   18    17    18    1
   19    17    19    1
   20    17    20    1
   21    20    21    1
   22    22    23    1
   23    22    24    1
   24    22    25    1
   25    25    26    1
   26    25    27    1
   27    27    28    1
   28    25    29    1
   29    29    30    1
   30    29    31    1
   31    31    32    1
   32     3    33    1
   33    29    33    1
   34    33    34    1
   35    33    35    1
   36    35    36    1
   37    22    37    1
   38    35    37    1
   39    35    38    1
   40    38    39    1
   41    38    40    1
   42    38    41    1
   43    41    42    1
   44    43    44    1
   45    43    45    1
   46    43    46    1
   47    46    47    1
   48    46    48    1
   49    48    49    1
   50    46    50    1
   51    50    51    1
   52    50    52    1
   53    52    53    1
   54    24    54    1
   55    50    54    1
   56    54    55    1
   57    54    56    1
   58    56    57    1
   59    43    58    1
   60    56    58    1
   61    56    59    1
   62    59    60    1
   63    59    61    1
   64    59    62    1
   65    62    63    1
   66    64    65    1
   67    64    66    1
   68    64    67    1
   69    67    68    1
   70    67    69    1
   71    69    70    1
   72    67    71    1
   73    71    72    1
   74    71    73    1
   75    73    74    1
   76    45    75    1
   77    71    75    1
   78    75    76    1
   79    75    77    1
   80    77    78    1
   81    64    79    1
   82    77    79    1
   83    77    80    1
   84    80    81    1
   85    80    82    1
   86    80    83    1
   87    83    84    1
   88    85    86    1
   89    85    87    1
   90    85    88    1
   91    88    89    1
   92    88    90    1
   93    90    91    1
   94    88    92    1
   95    92    93    1
   96    92    94    1
   97    94    95    1
   98    66    96    1
   99    92    96    1
  100    96    97    1
  101    96    98    1
  102    98    99    1
  103    85   100    1
  104    98   100    1
  105    98   101    1
  106   101   102    1
  107   101   103    1
  108   101   104    1
  109   104   105    1
  110   106   107    1
  111    12   108    1
  112   106   108    1
  113   106   109    1
  114   109   110    1
  115   109   111    1
  116   111   112    1
  117   109   113    1
  118   113   114    1
  119   113   115    1
  120   115   116    1
  121    87   117    1
  122   113   117    1
  123   117   118    1
  124   117   119    1
  125   119   120    1
  126   106   121    1
  127   119   121    1
  128   119   122    1
  129   122   123    1
  130   122   124    1
  131   122   125    1
  132   125   126    1
  133   127   128    1
  134   127   129    1
  135   127   130    1
  136   127   131    1
  137   131   132    1
  138   131   133    1
  139   131   134    1
  140   134   135    1
  141   134   136    1
  142   134   137    1
  143   137   138    1
  144   137   139    1
  145   137   140    1
  146   140   141    1
  147   140   142    1
  148   140   143    1
@<TRIPOS>SUBSTRUCTURE
       1 MOL1            1 RESIDUE      1      MOL     
       2 MOL1          143 RESIDUE      1      MOL     
@<SCITEGIC>MOL_PROPERTY
VM2 Rank
SciTegic.value.IntegerValue
1

@<SCITEGIC>MOL_PROPERTY
Conf_Id
SciTegic.value.IntegerValue
21762

@<SCITEGIC>MOL_PROPERTY
Probability
SciTegic.value.DoubleValue
2.01

@<SCITEGIC>MOL_PROPERTY
Sum Probability
SciTegic.value.DoubleValue
2.01

@<SCITEGIC>MOL_PROPERTY
Delta G
SciTegic.value.DoubleValue
0.000

@<SCITEGIC>MOL_PROPERTY
G
SciTegic.value.DoubleValue
538.532

@<SCITEGIC>MOL_PROPERTY
E
SciTegic.value.DoubleValue
351.358

@<SCITEGIC>MOL_PROPERTY
-TS
SciTegic.value.DoubleValue
187.174

@<SCITEGIC>MOL_PROPERTY
U+W
SciTegic.value.DoubleValue
225.270

@<SCITEGIC>MOL_PROPERTY
U
SciTegic.value.DoubleValue
298.247

@<SCITEGIC>MOL_PROPERTY
W
SciTegic.value.DoubleValue
-72.978

@<SCITEGIC>MOL_PROPERTY
W(PB)
SciTegic.value.DoubleValue
-78.985

@<SCITEGIC>MOL_PROPERTY
W(SA)
SciTegic.value.DoubleValue
6.008

@<SCITEGIC>MOL_PROPERTY
Valence
SciTegic.value.DoubleValue
143.603

@<SCITEGIC>MOL_PROPERTY
Coulomb
SciTegic.value.DoubleValue
172.871

@<SCITEGIC>MOL_PROPERTY
VdW
SciTegic.value.DoubleValue
-18.227

@<SCITEGIC>MOL_PROPERTY
VdW6
SciTegic.value.DoubleValue
-164.377

@<SCITEGIC>MOL_PROPERTY
VdW12
SciTegic.value.DoubleValue
146.151

@<SCITEGIC>MOL_PROPERTY
Bond
SciTegic.value.DoubleValue
4.429

@<SCITEGIC>MOL_PROPERTY
Angle
SciTegic.value.DoubleValue
10.610

@<SCITEGIC>MOL_PROPERTY
Pdih
SciTegic.value.DoubleValue
128.564

@<SCITEGIC>MOL_PROPERTY
Idih
SciTegic.value.DoubleValue
0.000

@<SCITEGIC>MOL_PROPERTY
Tether
SciTegic.value.DoubleValue
0.000

