@<TRIPOS>MOLECULE
CD_guest-s17_vm2_single.mol2 : vm2 host+ligand conformer 1
         151         157           2
SMALL
USER_CHARGES
 
@<TRIPOS>ATOM
       1    C1      16.200901   15.125174   21.512865 C.3        1 MOL1         0.2972
       2    H1      15.111441   15.009539   21.448976 H          1 MOL1         0.0751
       3    O1      16.611109   16.481564   21.242483 O.3        1 MOL1        -0.3740
       4    C2      16.699313   14.715376   22.920929 C.3        1 MOL1         0.1003
       5    H2      16.459273   13.653457   23.061529 H          1 MOL1         0.0783
       6    O2      16.058039   15.483511   23.948014 O.3        1 MOL1        -0.5519
       7    H3      16.588956   15.304678   24.756250 H          1 MOL1         0.3769
       8    C3      18.232141   14.874597   23.017182 C.3        1 MOL1         0.1053
       9    H4      18.456651   15.943508   22.936917 H          1 MOL1         0.0783
      10    O3      18.699868   14.365525   24.272451 O.3        1 MOL1        -0.5519
      11    H5      19.686254   14.330494   24.214891 H          1 MOL1         0.3769
      12    C4      18.956867   14.145592   21.860484 C.3        1 MOL1         0.1018
      13    H6      18.954057   13.068841   22.075601 H          1 MOL1         0.0783
      14    C5      18.303793   14.409409   20.473416 C.3        1 MOL1         0.1043
      15    H7      18.558668   15.431876   20.165437 H          1 MOL1         0.0783
      16    O4      16.861160   14.268458   20.557031 O.3        1 MOL1        -0.3740
      17    C6      18.797743   13.447245   19.370270 C.3        1 MOL1         0.0138
      18    H8      19.873794   13.595944   19.215466 H          1 MOL1         0.0794
      19    H9      18.295094   13.703629   18.428132 H          1 MOL1         0.0794
      20    O5      18.532244   12.085213   19.718511 O.3        1 MOL1        -0.5486
      21    H10     17.564023   12.027163   19.878961 H          1 MOL1         0.3769
      22    C7      15.012202   20.218138   20.361647 C.3        1 MOL1         0.2972
      23    H11     14.416922   21.045582   19.954130 H          1 MOL1         0.0751
      24    O6      16.189353   20.695581   21.043816 O.3        1 MOL1        -0.3740
      25    C8      14.175276   19.385811   21.367541 C.3        1 MOL1         0.1003
      26    H12     13.295063   19.009818   20.830732 H          1 MOL1         0.0783
      27    O7      13.740048   20.222041   22.452950 O.3        1 MOL1        -0.5519
      28    H13     14.540292   20.676519   22.816990 H          1 MOL1         0.3769
      29    C9      14.978790   18.157535   21.878257 C.3        1 MOL1         0.1053
      30    H14     15.792579   18.528574   22.513638 H          1 MOL1         0.0783
      31    O8      14.132654   17.286681   22.638628 O.3        1 MOL1        -0.5519
      32    H15     14.735389   16.694037   23.152070 H          1 MOL1         0.3769
      33    C10     15.607431   17.360866   20.701061 C.3        1 MOL1         0.1018
      34    H16     14.823016   16.801069   20.174172 H          1 MOL1         0.0783
      35    C11     16.327098   18.275532   19.677962 C.3        1 MOL1         0.1043
      36    H17     17.241831   18.678116   20.133189 H          1 MOL1         0.0783
      37    O9      15.433009   19.345494   19.293876 O.3        1 MOL1        -0.3740
      38    C12     16.713305   17.514777   18.392228 C.3        1 MOL1         0.0138
      39    H18     15.801006   17.170973   17.886589 H          1 MOL1         0.0794
      40    H19     17.301355   16.626987   18.656804 H          1 MOL1         0.0794
      41    O10     17.474547   18.364010   17.531495 O.3        1 MOL1        -0.5486
      42    H20     16.940593   19.180727   17.415262 H          1 MOL1         0.3769
      43    C13     18.322293   24.170004   21.766554 C.3        1 MOL1         0.2972
      44    H21     18.674125   25.201084   21.897068 H          1 MOL1         0.0751
      45    O11     19.406728   23.220711   21.810965 O.3        1 MOL1        -0.3740
      46    C14     17.308112   23.792709   22.877843 C.3        1 MOL1         0.1003
      47    H22     16.445759   24.465923   22.784384 H          1 MOL1         0.0783
      48    O12     17.887351   23.934508   24.187243 O.3        1 MOL1        -0.5519
      49    H23     17.937311   24.894160   24.383993 H          1 MOL1         0.3769
      50    C15     16.807111   22.343733   22.672115 C.3        1 MOL1         0.1053
      51    H24     17.658998   21.671616   22.826706 H          1 MOL1         0.0783
      52    O13     15.778585   22.055665   23.624788 O.3        1 MOL1        -0.5519
      53    H25     16.145454   22.352414   24.486836 H          1 MOL1         0.3769
      54    C16     16.274180   22.121348   21.235648 C.3        1 MOL1         0.1018
      55    H26     15.290720   22.603652   21.157391 H          1 MOL1         0.0783
      56    C17     17.233408   22.685399   20.148691 C.3        1 MOL1         0.1043
      57    H27     18.114571   22.032203   20.092353 H          1 MOL1         0.0783
      58    O14     17.646175   24.029641   20.499251 O.3        1 MOL1        -0.3740
      59    C18     16.603285   22.746216   18.739161 C.3        1 MOL1         0.0138
      60    H28     16.390831   21.725777   18.395425 H          1 MOL1         0.0794
      61    H29     17.335703   23.177397   18.043693 H          1 MOL1         0.0794
      62    O15     15.403785   23.525850   18.742207 O.3        1 MOL1        -0.5486
      63    H30     15.654684   24.414624   19.079195 H          1 MOL1         0.3769
      64    C19     23.504924   22.764475   21.767494 C.3        1 MOL1         0.2972
      65    H31     24.595503   22.885689   21.778545 H          1 MOL1         0.0751
      66    O16     23.122993   21.411192   21.446494 O.3        1 MOL1        -0.3740
      67    C20     22.911691   23.143072   23.147133 C.3        1 MOL1         0.1003
      68    H32     23.146670   24.201252   23.321253 H          1 MOL1         0.0783
      69    O17     23.487057   22.358355   24.201069 O.3        1 MOL1        -0.5519
      70    H33     23.024561   22.668469   25.013072 H          1 MOL1         0.3769
      71    C21     21.372322   22.995458   23.142800 C.3        1 MOL1         0.1053
      72    H34     21.126779   21.932351   23.034506 H          1 MOL1         0.0783
      73    O18     20.835595   23.490639   24.374938 O.3        1 MOL1        -0.5519
      74    H35     19.853221   23.414367   24.305579 H          1 MOL1         0.3769
      75    C22     20.736076   23.754942   21.952487 C.3        1 MOL1         0.1018
      76    H36     20.731616   24.828392   22.183019 H          1 MOL1         0.0783
      77    C23     21.478306   23.507695   20.608771 C.3        1 MOL1         0.1043
      78    H37     21.244319   22.490295   20.269603 H          1 MOL1         0.0783
      79    O19     22.910739   23.643505   20.789551 O.3        1 MOL1        -0.3740
      80    C24     21.054727   24.486929   19.491657 C.3        1 MOL1         0.0138
      81    H38     19.986583   24.350428   19.278577 H          1 MOL1         0.0794
      82    H39     21.605975   24.236138   18.575457 H          1 MOL1         0.0794
      83    O20     21.313019   25.842211   19.870606 O.3        1 MOL1        -0.5486
      84    H40     22.270821   25.887208   20.088072 H          1 MOL1         0.3769
      85    C25     24.851719   17.682484   20.751849 C.3        1 MOL1         0.2972
      86    H41     25.489474   16.863257   20.395882 H          1 MOL1         0.0751
      87    O21     23.680197   17.183853   21.429993 O.3        1 MOL1        -0.3740
      88    C26     25.642785   18.592168   21.729277 C.3        1 MOL1         0.1003
      89    H42     26.527288   18.958528   21.192256 H          1 MOL1         0.0783
      90    O22     26.061178   17.856833   22.888441 O.3        1 MOL1        -0.5519
      91    H43     26.410080   18.538330   23.505307 H          1 MOL1         0.3769
      92    C27     24.809552   19.821734   22.167654 C.3        1 MOL1         0.1053
      93    H44     24.001813   19.456786   22.808363 H          1 MOL1         0.0783
      94    O23     25.635202   20.719443   22.919563 O.3        1 MOL1        -0.5519
      95    H45     25.019017   21.313971   23.412840 H          1 MOL1         0.3769
      96    C28     24.170509   20.551932   20.954095 C.3        1 MOL1         0.1018
      97    H46     24.939212   21.122775   20.416311 H          1 MOL1         0.0783
      98    C29     23.498119   19.562912   19.965944 C.3        1 MOL1         0.1043
      99    H47     22.596975   19.150800   20.439846 H          1 MOL1         0.0783
     100    O24     24.420020   18.495487   19.641543 O.3        1 MOL1        -0.3740
     101    C30     23.074943   20.228919   18.637533 C.3        1 MOL1         0.0138
     102    H48     22.364000   21.037465   18.850042 H          1 MOL1         0.0794
     103    H49     22.552678   19.484885   18.021433 H          1 MOL1         0.0794
     104    O25     24.210047   20.743532   17.935319 O.3        1 MOL1        -0.5486
     105    H50     24.844471   19.996004   17.862035 H          1 MOL1         0.3769
     106    C31     21.369966   13.739496   21.738945 C.3        1 MOL1         0.2972
     107    H51     21.003468   12.705517   21.764692 H          1 MOL1         0.0751
     108    O26     20.290880   14.691329   21.833265 O.3        1 MOL1        -0.3740
     109    C32     22.349120   13.991019   22.913950 C.3        1 MOL1         0.1003
     110    H52     23.176280   13.276350   22.813726 H          1 MOL1         0.0783
     111    O27     21.700462   13.795664   24.178970 O.3        1 MOL1        -0.5519
     112    H53     22.348256   14.120865   24.843555 H          1 MOL1         0.3769
     113    C33     22.938650   15.418776   22.847920 C.3        1 MOL1         0.1053
     114    H54     22.123525   16.119304   23.058859 H          1 MOL1         0.0783
     115    O28     23.975595   15.565723   23.825603 O.3        1 MOL1        -0.5519
     116    H55     24.439623   16.410837   23.613796 H          1 MOL1         0.3769
     117    C34     23.510028   15.751434   21.448536 C.3        1 MOL1         0.1018
     118    H56     24.468646   15.227415   21.337524 H          1 MOL1         0.0783
     119    C35     22.544493   15.341984   20.299002 C.3        1 MOL1         0.1043
     120    H57     21.687879   16.029172   20.299824 H          1 MOL1         0.0783
     121    O29     22.084872   13.984412   20.509908 O.3        1 MOL1        -0.3740
     122    C36     23.186842   15.382344   18.893851 C.3        1 MOL1         0.0138
     123    H58     23.428563   16.419277   18.632533 H          1 MOL1         0.0794
     124    H59     22.449034   15.030129   18.160636 H          1 MOL1         0.0794
     125    O30     24.363469   14.570134   18.839275 O.3        1 MOL1        -0.5486
     126    H60     24.083562   13.664394   19.099238 H          1 MOL1         0.3769
     127    C1      18.240428   19.370872   24.223207 C.3        1 MOL1        -0.1684
     128    H1      18.665745   20.316134   24.578659 H          1 MOL1         0.0833
     129    H2      17.189413   19.606945   24.012811 H          1 MOL1         0.0833
     130    C2      18.892388   18.947130   22.881450 C.3        1 MOL1        -0.1684
     131    H3      18.174753   18.312064   22.349763 H          1 MOL1         0.0833
     132    H4      19.028913   19.834054   22.248530 H          1 MOL1         0.0833
     133    C3      20.223771   18.163521   22.962519 C.3        1 MOL1        -0.1684
     134    H5      20.481870   17.838441   21.945658 H          1 MOL1         0.0833
     135    H6      20.089972   17.236479   23.527565 H          1 MOL1         0.0833
     136    C4      21.433574   18.942159   23.526069 C.3        1 MOL1        -0.1760
     137    H7      22.305515   18.285256   23.445910 H          1 MOL1         0.0833
     138    H8      21.633776   19.798548   22.875813 H          1 MOL1         0.0833
     139    C5      21.352894   19.423996   24.992607 C.3        1 MOL1         0.1219
     140    H9      20.713649   20.312632   25.053116 H          1 MOL1         0.0790
     141    C6      20.834112   18.352676   25.986489 C.3        1 MOL1        -0.1760
     142    H10     20.989843   17.343316   25.586965 H          1 MOL1         0.0833
     143    H11     21.449328   18.397810   26.895024 H          1 MOL1         0.0833
     144    C7      19.358454   18.539357   26.430006 C.3        1 MOL1        -0.1684
     145    H12     19.234256   19.542445   26.860171 H          1 MOL1         0.0833
     146    H13     19.166087   17.838296   27.253249 H          1 MOL1         0.0833
     147    C8      18.270866   18.306120   25.349064 C.3        1 MOL1        -0.1684
     148    H14     17.298195   18.337218   25.858413 H          1 MOL1         0.0833
     149    H15     18.342664   17.292527   24.936851 H          1 MOL1         0.0833
     150    O1      22.668762   19.799653   25.383668 O.3        1 MOL1        -0.5508
     151    H16     22.939507   20.546334   24.804826 H          1 MOL1         0.3780
@<TRIPOS>BOND
    1     1     2    1
    2     1     3    1
    3     1     4    1
    4     4     5    1
    5     4     6    1
    6     6     7    1
    7     4     8    1
    8     8     9    1
    9     8    10    1
   10    10    11    1
   11     8    12    1
   12    12    13    1
   13    12    14    1
   14    14    15    1
   15     1    16    1
   16    14    16    1
   17    14    17    1
   18    17    18    1
   19    17    19    1
   20    17    20    1
   21    20    21    1
   22    22    23    1
   23    22    24    1
   24    22    25    1
   25    25    26    1
   26    25    27    1
   27    27    28    1
   28    25    29    1
   29    29    30    1
   30    29    31    1
   31    31    32    1
   32     3    33    1
   33    29    33    1
   34    33    34    1
   35    33    35    1
   36    35    36    1
   37    22    37    1
   38    35    37    1
   39    35    38    1
   40    38    39    1
   41    38    40    1
   42    38    41    1
   43    41    42    1
   44    43    44    1
   45    43    45    1
   46    43    46    1
   47    46    47    1
   48    46    48    1
   49    48    49    1
   50    46    50    1
   51    50    51    1
   52    50    52    1
   53    52    53    1
   54    24    54    1
   55    50    54    1
   56    54    55    1
   57    54    56    1
   58    56    57    1
   59    43    58    1
   60    56    58    1
   61    56    59    1
   62    59    60    1
   63    59    61    1
   64    59    62    1
   65    62    63    1
   66    64    65    1
   67    64    66    1
   68    64    67    1
   69    67    68    1
   70    67    69    1
   71    69    70    1
   72    67    71    1
   73    71    72    1
   74    71    73    1
   75    73    74    1
   76    45    75    1
   77    71    75    1
   78    75    76    1
   79    75    77    1
   80    77    78    1
   81    64    79    1
   82    77    79    1
   83    77    80    1
   84    80    81    1
   85    80    82    1
   86    80    83    1
   87    83    84    1
   88    85    86    1
   89    85    87    1
   90    85    88    1
   91    88    89    1
   92    88    90    1
   93    90    91    1
   94    88    92    1
   95    92    93    1
   96    92    94    1
   97    94    95    1
   98    66    96    1
   99    92    96    1
  100    96    97    1
  101    96    98    1
  102    98    99    1
  103    85   100    1
  104    98   100    1
  105    98   101    1
  106   101   102    1
  107   101   103    1
  108   101   104    1
  109   104   105    1
  110   106   107    1
  111    12   108    1
  112   106   108    1
  113   106   109    1
  114   109   110    1
  115   109   111    1
  116   111   112    1
  117   109   113    1
  118   113   114    1
  119   113   115    1
  120   115   116    1
  121    87   117    1
  122   113   117    1
  123   117   118    1
  124   117   119    1
  125   119   120    1
  126   106   121    1
  127   119   121    1
  128   119   122    1
  129   122   123    1
  130   122   124    1
  131   122   125    1
  132   125   126    1
  133   127   128    1
  134   127   129    1
  135   127   130    1
  136   130   131    1
  137   130   132    1
  138   130   133    1
  139   133   134    1
  140   133   135    1
  141   133   136    1
  142   136   137    1
  143   136   138    1
  144   136   139    1
  145   139   140    1
  146   139   141    1
  147   141   142    1
  148   141   143    1
  149   141   144    1
  150   144   145    1
  151   144   146    1
  152   127   147    1
  153   144   147    1
  154   147   148    1
  155   147   149    1
  156   139   150    1
  157   150   151    1
@<TRIPOS>SUBSTRUCTURE
       1 MOL1            1 RESIDUE      1      MOL     
       2 MOL1          151 RESIDUE      1      MOL     
@<SCITEGIC>MOL_PROPERTY
VM2 Rank
SciTegic.value.IntegerValue
1

@<SCITEGIC>MOL_PROPERTY
Conf_Id
SciTegic.value.IntegerValue
27925

@<SCITEGIC>MOL_PROPERTY
Probability
SciTegic.value.DoubleValue
2.06

@<SCITEGIC>MOL_PROPERTY
Sum Probability
SciTegic.value.DoubleValue
2.06

@<SCITEGIC>MOL_PROPERTY
Delta G
SciTegic.value.DoubleValue
0.000

@<SCITEGIC>MOL_PROPERTY
G
SciTegic.value.DoubleValue
580.659

@<SCITEGIC>MOL_PROPERTY
E
SciTegic.value.DoubleValue
379.028

@<SCITEGIC>MOL_PROPERTY
-TS
SciTegic.value.DoubleValue
201.631

@<SCITEGIC>MOL_PROPERTY
U+W
SciTegic.value.DoubleValue
245.786

@<SCITEGIC>MOL_PROPERTY
U
SciTegic.value.DoubleValue
283.468

@<SCITEGIC>MOL_PROPERTY
W
SciTegic.value.DoubleValue
-37.682

@<SCITEGIC>MOL_PROPERTY
W(PB)
SciTegic.value.DoubleValue
-43.900

@<SCITEGIC>MOL_PROPERTY
W(SA)
SciTegic.value.DoubleValue
6.218

@<SCITEGIC>MOL_PROPERTY
Valence
SciTegic.value.DoubleValue
158.198

@<SCITEGIC>MOL_PROPERTY
Coulomb
SciTegic.value.DoubleValue
148.876

@<SCITEGIC>MOL_PROPERTY
VdW
SciTegic.value.DoubleValue
-23.606

@<SCITEGIC>MOL_PROPERTY
VdW6
SciTegic.value.DoubleValue
-178.486

@<SCITEGIC>MOL_PROPERTY
VdW12
SciTegic.value.DoubleValue
154.880

@<SCITEGIC>MOL_PROPERTY
Bond
SciTegic.value.DoubleValue
4.507

@<SCITEGIC>MOL_PROPERTY
Angle
SciTegic.value.DoubleValue
13.683

@<SCITEGIC>MOL_PROPERTY
Pdih
SciTegic.value.DoubleValue
140.008

@<SCITEGIC>MOL_PROPERTY
Idih
SciTegic.value.DoubleValue
0.000

@<SCITEGIC>MOL_PROPERTY
Tether
SciTegic.value.DoubleValue
0.000

