@<TRIPOS>MOLECULE
CD_guest-s15_vm2_single.mol2 : vm2 host+ligand conformer 1
         155         160           2
SMALL
USER_CHARGES
 
@<TRIPOS>ATOM
       1    C1      16.226164   15.316291   21.719388 C.3        1 MOL1         0.2972
       2    H1      15.158457   15.156565   21.916967 H          1 MOL1         0.0751
       3    O1      16.462157   16.588374   21.082844 O.3        1 MOL1        -0.3740
       4    C2      17.035226   15.248825   23.041424 C.3        1 MOL1         0.1003
       5    H2      16.865117   14.255160   23.475246 H          1 MOL1         0.0783
       6    O2      16.591279   16.249365   23.971338 O.3        1 MOL1        -0.5519
       7    H3      15.684184   16.522601   23.696087 H          1 MOL1         0.3769
       8    C3      18.551798   15.401061   22.772612 C.3        1 MOL1         0.1053
       9    H4      18.727350   16.430614   22.438054 H          1 MOL1         0.0783
      10    O3      19.288377   15.134476   23.974787 O.3        1 MOL1        -0.5519
      11    H5      20.136120   14.711796   23.697778 H          1 MOL1         0.3769
      12    C4      19.050935   14.463835   21.645943 C.3        1 MOL1         0.1018
      13    H6      19.153591   13.448807   22.053113 H          1 MOL1         0.0783
      14    C5      18.104707   14.450752   20.411579 C.3        1 MOL1         0.1043
      15    H7      18.214472   15.406989   19.882755 H          1 MOL1         0.0783
      16    O4      16.730691   14.286632   20.842770 O.3        1 MOL1        -0.3740
      17    C6      18.416452   13.324720   19.400526 C.3        1 MOL1         0.0138
      18    H8      19.404288   13.504728   18.956475 H          1 MOL1         0.0794
      19    H9      17.681521   13.369301   18.585635 H          1 MOL1         0.0794
      20    O5      18.383739   12.039680   20.028031 O.3        1 MOL1        -0.5486
      21    H10     17.487773   11.947878   20.422122 H          1 MOL1         0.3769
      22    C7      14.682644   20.239005   20.487157 C.3        1 MOL1         0.2972
      23    H11     14.078038   21.113721   20.214632 H          1 MOL1         0.0751
      24    O6      16.014607   20.616613   20.891789 O.3        1 MOL1        -0.3740
      25    C8      14.011699   19.419808   21.618356 C.3        1 MOL1         0.1003
      26    H12     13.058561   19.046463   21.221607 H          1 MOL1         0.0783
      27    O7      13.746831   20.220591   22.779783 O.3        1 MOL1        -0.5519
      28    H13     14.622687   20.528018   23.126028 H          1 MOL1         0.3769
      29    C9      14.882526   18.196790   21.993316 C.3        1 MOL1         0.1053
      30    H14     15.797667   18.568947   22.475364 H          1 MOL1         0.0783
      31    O8      14.145378   17.380259   22.910125 O.3        1 MOL1        -0.5519
      32    H15     13.705004   18.015783   23.519248 H          1 MOL1         0.3769
      33    C10     15.299104   17.369644   20.742460 C.3        1 MOL1         0.1018
      34    H16     14.463876   16.728835   20.429770 H          1 MOL1         0.0783
      35    C11     15.728026   18.247315   19.534905 C.3        1 MOL1         0.1043
      36    H17     16.738217   18.631082   19.719264 H          1 MOL1         0.0783
      37    O9      14.802946   19.348645   19.359115 O.3        1 MOL1        -0.3740
      38    C12     15.759701   17.441197   18.220457 C.3        1 MOL1         0.0138
      39    H18     14.741639   17.114033   17.970219 H          1 MOL1         0.0794
      40    H19     16.375119   16.542598   18.362542 H          1 MOL1         0.0794
      41    O10     16.303209   18.242523   17.169882 O.3        1 MOL1        -0.5486
      42    H20     15.793334   19.082987   17.176601 H          1 MOL1         0.3769
      43    C13     18.405529   23.758394   22.052873 C.3        1 MOL1         0.2972
      44    H21     18.833843   24.708559   22.396320 H          1 MOL1         0.0751
      45    O11     19.416349   22.883149   21.511199 O.3        1 MOL1        -0.3740
      46    C14     17.697411   23.035938   23.225857 C.3        1 MOL1         0.1003
      47    H22     16.894896   23.697713   23.576776 H          1 MOL1         0.0783
      48    O12     18.606810   22.782251   24.308839 O.3        1 MOL1        -0.5519
      49    H23     19.399005   23.352863   24.160716 H          1 MOL1         0.3769
      50    C15     17.057778   21.712231   22.747128 C.3        1 MOL1         0.1053
      51    H24     17.867147   21.024802   22.478097 H          1 MOL1         0.0783
      52    O13     16.290808   21.151184   23.816420 O.3        1 MOL1        -0.5519
      53    H25     16.865245   21.253374   24.607081 H          1 MOL1         0.3769
      54    C16     16.173689   21.915921   21.490572 C.3        1 MOL1         0.1018
      55    H26     15.213397   22.350458   21.798620 H          1 MOL1         0.0783
      56    C17     16.849106   22.815524   20.416578 C.3        1 MOL1         0.1043
      57    H27     17.646543   22.233327   19.936847 H          1 MOL1         0.0783
      58    O14     17.417306   23.998809   21.029588 O.3        1 MOL1        -0.3740
      59    C18     15.880401   23.277882   19.305483 C.3        1 MOL1         0.0138
      60    H28     15.532746   22.399707   18.745438 H          1 MOL1         0.0794
      61    H29     16.429759   23.916909   18.601209 H          1 MOL1         0.0794
      62    O15     14.765077   23.986772   19.852928 O.3        1 MOL1        -0.5486
      63    H30     15.139601   24.742580   20.357941 H          1 MOL1         0.3769
      64    C19     23.568599   22.773813   21.174436 C.3        1 MOL1         0.2972
      65    H31     24.621271   22.994334   20.955481 H          1 MOL1         0.0751
      66    O16     23.378872   21.398276   21.556363 O.3        1 MOL1        -0.3740
      67    C20     23.040211   23.670501   22.325891 C.3        1 MOL1         0.1003
      68    H32     23.138886   24.715176   22.002496 H          1 MOL1         0.0783
      69    O17     23.792278   23.470813   23.535863 O.3        1 MOL1        -0.5519
      70    H33     24.680230   23.864855   23.400166 H          1 MOL1         0.3769
      71    C21     21.539679   23.391571   22.588551 C.3        1 MOL1         0.1053
      72    H34     21.454695   22.371020   22.983028 H          1 MOL1         0.0783
      73    O18     21.058486   24.323557   23.563092 O.3        1 MOL1        -0.5519
      74    H35     21.765976   24.354765   24.246622 H          1 MOL1         0.3769
      75    C22     20.709060   23.475117   21.276963 C.3        1 MOL1         0.1018
      76    H36     20.616242   24.522933   20.961396 H          1 MOL1         0.0783
      77    C23     21.359796   22.665505   20.125145 C.3        1 MOL1         0.1043
      78    H37     21.259996   21.594473   20.340829 H          1 MOL1         0.0783
      79    O19     22.756357   23.032520   20.010629 O.3        1 MOL1        -0.3740
      80    C24     20.691884   22.948000   18.763939 C.3        1 MOL1         0.0138
      81    H38     20.841213   24.002924   18.497665 H          1 MOL1         0.0794
      82    H39     19.611496   22.773795   18.846102 H          1 MOL1         0.0794
      83    O20     21.246625   22.092948   17.762893 O.3        1 MOL1        -0.5486
      84    H40     22.219461   22.221993   17.804094 H          1 MOL1         0.3769
      85    C25     25.201098   17.724625   21.784401 C.3        1 MOL1         0.2972
      86    H41     25.872497   16.859004   21.847367 H          1 MOL1         0.0751
      87    O21     23.828327   17.328143   21.582180 O.3        1 MOL1        -0.3740
      88    C26     25.294774   18.564545   23.081545 C.3        1 MOL1         0.1003
      89    H42     26.324504   18.936577   23.161977 H          1 MOL1         0.0783
      90    O22     24.984392   17.777477   24.238977 O.3        1 MOL1        -0.5519
      91    H43     24.897771   18.433202   24.967266 H          1 MOL1         0.3769
      92    C27     24.350276   19.783148   23.005104 C.3        1 MOL1         0.1053
      93    H44     23.321932   19.404927   23.001833 H          1 MOL1         0.0783
      94    O23     24.555564   20.628463   24.143561 O.3        1 MOL1        -0.5519
      95    H45     24.065764   21.468233   23.967585 H          1 MOL1         0.3769
      96    C28     24.565162   20.597133   21.706036 C.3        1 MOL1         0.1018
      97    H46     25.466874   21.212024   21.826740 H          1 MOL1         0.0783
      98    C29     24.690993   19.705346   20.436382 C.3        1 MOL1         0.1043
      99    H47     23.691864   19.329873   20.178416 H          1 MOL1         0.0783
     100    O24     25.578964   18.585743   20.689174 O.3        1 MOL1        -0.3740
     101    C30     25.232674   20.465647   19.205728 C.3        1 MOL1         0.0138
     102    H48     24.518110   21.250186   18.925091 H          1 MOL1         0.0794
     103    H49     25.298891   19.767800   18.360254 H          1 MOL1         0.0794
     104    O25     26.514268   21.040295   19.477264 O.3        1 MOL1        -0.5486
     105    H50     27.098456   20.296213   19.744840 H          1 MOL1         0.3769
     106    C31     21.365137   14.047592   20.948945 C.3        1 MOL1         0.2972
     107    H51     20.952197   13.066236   20.682512 H          1 MOL1         0.0751
     108    O26     20.318475   15.003339   21.217264 O.3        1 MOL1        -0.3740
     109    C32     22.300800   13.936699   22.183072 C.3        1 MOL1         0.1003
     110    H52     23.108132   13.242735   21.915004 H          1 MOL1         0.0783
     111    O27     21.613638   13.430291   23.334271 O.3        1 MOL1        -0.5519
     112    H53     22.271575   13.488318   24.063498 H          1 MOL1         0.3769
     113    C33     22.944336   15.302424   22.519908 C.3        1 MOL1         0.1053
     114    H54     22.151233   15.975523   22.874124 H          1 MOL1         0.0783
     115    O28     23.926575   15.123484   23.547027 O.3        1 MOL1        -0.5519
     116    H55     24.242562   16.026953   23.799161 H          1 MOL1         0.3769
     117    C34     23.599249   15.942036   21.269305 C.3        1 MOL1         0.1018
     118    H56     24.530572   15.411747   21.029411 H          1 MOL1         0.0783
     119    C35     22.670353   15.904715   20.029238 C.3        1 MOL1         0.1043
     120    H57     21.849830   16.615079   20.181949 H          1 MOL1         0.0783
     121    O29     22.154792   14.561603   19.855252 O.3        1 MOL1        -0.3740
     122    C36     23.411557   16.292619   18.733453 C.3        1 MOL1         0.0138
     123    H58     24.180301   15.539367   18.515046 H          1 MOL1         0.0794
     124    H59     23.918829   17.255171   18.877756 H          1 MOL1         0.0794
     125    O30     22.482287   16.391556   17.653097 O.3        1 MOL1        -0.5486
     126    H60     21.979095   15.547454   17.647495 H          1 MOL1         0.3769
     127    C1      19.732780   18.566213   19.388490 C.3        1 MOL1        -0.2426
     128    H1      18.908668   18.759381   18.689584 H          1 MOL1         0.0959
     129    H2      20.640621   19.017064   18.965924 H          1 MOL1         0.0959
     130    H3      19.878080   17.479923   19.438998 H          1 MOL1         0.0959
     131    C2      19.416133   19.148539   20.781865 C.3        1 MOL1        -0.1410
     132    H4      18.524405   18.650673   21.183333 H          1 MOL1         0.0948
     133    H5      19.166084   20.212712   20.678047 H          1 MOL1         0.0948
     134    C3      20.604276   18.986919   21.758718 C.3        1 MOL1        -0.1435
     135    H6      20.865266   17.924750   21.855332 H          1 MOL1         0.0948
     136    H7      21.485662   19.480839   21.331894 H          1 MOL1         0.0948
     137    C4      20.327357   19.578316   23.162657 C.3        1 MOL1        -0.1435
     138    H8      19.986383   20.616381   23.073230 H          1 MOL1         0.0948
     139    H9      21.265831   19.612527   23.729438 H          1 MOL1         0.0948
     140    C5      19.302587   18.746324   23.962656 C.3        1 MOL1        -0.1435
     141    H10     18.329405   18.741247   23.453937 H          1 MOL1         0.0948
     142    H11     19.660244   17.712648   23.996291 H          1 MOL1         0.0948
     143    C6      19.121597   19.252398   25.409695 C.3        1 MOL1        -0.1500
     144    H12     18.854439   20.316248   25.390721 H          1 MOL1         0.0948
     145    H13     20.075925   19.177259   25.947257 H          1 MOL1         0.0948
     146    C7      18.030222   18.470290   26.172246 C.3        1 MOL1         0.1162
     147    H14     17.081785   18.599121   25.640776 H          1 MOL1         0.0910
     148    C8      17.868115   19.034588   27.592033 C.3        1 MOL1        -0.2491
     149    H15     17.059625   18.518239   28.123764 H          1 MOL1         0.0959
     150    H16     18.791190   18.916137   28.172957 H          1 MOL1         0.0959
     151    H17     17.618053   20.102358   27.559774 H          1 MOL1         0.0959
     152    N1      18.293043   16.987766   26.213109 N.4        1 MOL1        -0.5987
     153    H18     18.215478   16.569001   25.267293 H          1 MOL1         0.3605
     154    H19     17.602956   16.501769   26.790148 H          1 MOL1         0.3605
     155    H20     19.224881   16.767035   26.570641 H          1 MOL1         0.3605
@<TRIPOS>BOND
    1     1     2    1
    2     1     3    1
    3     1     4    1
    4     4     5    1
    5     4     6    1
    6     6     7    1
    7     4     8    1
    8     8     9    1
    9     8    10    1
   10    10    11    1
   11     8    12    1
   12    12    13    1
   13    12    14    1
   14    14    15    1
   15     1    16    1
   16    14    16    1
   17    14    17    1
   18    17    18    1
   19    17    19    1
   20    17    20    1
   21    20    21    1
   22    22    23    1
   23    22    24    1
   24    22    25    1
   25    25    26    1
   26    25    27    1
   27    27    28    1
   28    25    29    1
   29    29    30    1
   30    29    31    1
   31    31    32    1
   32     3    33    1
   33    29    33    1
   34    33    34    1
   35    33    35    1
   36    35    36    1
   37    22    37    1
   38    35    37    1
   39    35    38    1
   40    38    39    1
   41    38    40    1
   42    38    41    1
   43    41    42    1
   44    43    44    1
   45    43    45    1
   46    43    46    1
   47    46    47    1
   48    46    48    1
   49    48    49    1
   50    46    50    1
   51    50    51    1
   52    50    52    1
   53    52    53    1
   54    24    54    1
   55    50    54    1
   56    54    55    1
   57    54    56    1
   58    56    57    1
   59    43    58    1
   60    56    58    1
   61    56    59    1
   62    59    60    1
   63    59    61    1
   64    59    62    1
   65    62    63    1
   66    64    65    1
   67    64    66    1
   68    64    67    1
   69    67    68    1
   70    67    69    1
   71    69    70    1
   72    67    71    1
   73    71    72    1
   74    71    73    1
   75    73    74    1
   76    45    75    1
   77    71    75    1
   78    75    76    1
   79    75    77    1
   80    77    78    1
   81    64    79    1
   82    77    79    1
   83    77    80    1
   84    80    81    1
   85    80    82    1
   86    80    83    1
   87    83    84    1
   88    85    86    1
   89    85    87    1
   90    85    88    1
   91    88    89    1
   92    88    90    1
   93    90    91    1
   94    88    92    1
   95    92    93    1
   96    92    94    1
   97    94    95    1
   98    66    96    1
   99    92    96    1
  100    96    97    1
  101    96    98    1
  102    98    99    1
  103    85   100    1
  104    98   100    1
  105    98   101    1
  106   101   102    1
  107   101   103    1
  108   101   104    1
  109   104   105    1
  110   106   107    1
  111    12   108    1
  112   106   108    1
  113   106   109    1
  114   109   110    1
  115   109   111    1
  116   111   112    1
  117   109   113    1
  118   113   114    1
  119   113   115    1
  120   115   116    1
  121    87   117    1
  122   113   117    1
  123   117   118    1
  124   117   119    1
  125   119   120    1
  126   106   121    1
  127   119   121    1
  128   119   122    1
  129   122   123    1
  130   122   124    1
  131   122   125    1
  132   125   126    1
  133   127   128    1
  134   127   129    1
  135   127   130    1
  136   127   131    1
  137   131   132    1
  138   131   133    1
  139   131   134    1
  140   134   135    1
  141   134   136    1
  142   134   137    1
  143   137   138    1
  144   137   139    1
  145   137   140    1
  146   140   141    1
  147   140   142    1
  148   140   143    1
  149   143   144    1
  150   143   145    1
  151   143   146    1
  152   146   147    1
  153   146   148    1
  154   148   149    1
  155   148   150    1
  156   148   151    1
  157   146   152    1
  158   152   153    1
  159   152   154    1
  160   152   155    1
@<TRIPOS>SUBSTRUCTURE
       1 MOL1            1 RESIDUE      1      MOL     
       2 MOL1          155 RESIDUE      1      MOL     
@<SCITEGIC>MOL_PROPERTY
VM2 Rank
SciTegic.value.IntegerValue
1

@<SCITEGIC>MOL_PROPERTY
Conf_Id
SciTegic.value.IntegerValue
21719

@<SCITEGIC>MOL_PROPERTY
Probability
SciTegic.value.DoubleValue
3.55

@<SCITEGIC>MOL_PROPERTY
Sum Probability
SciTegic.value.DoubleValue
3.55

@<SCITEGIC>MOL_PROPERTY
Delta G
SciTegic.value.DoubleValue
0.000

@<SCITEGIC>MOL_PROPERTY
G
SciTegic.value.DoubleValue
551.298

@<SCITEGIC>MOL_PROPERTY
E
SciTegic.value.DoubleValue
342.585

@<SCITEGIC>MOL_PROPERTY
-TS
SciTegic.value.DoubleValue
208.713

@<SCITEGIC>MOL_PROPERTY
U+W
SciTegic.value.DoubleValue
205.766

@<SCITEGIC>MOL_PROPERTY
U
SciTegic.value.DoubleValue
275.379

@<SCITEGIC>MOL_PROPERTY
W
SciTegic.value.DoubleValue
-69.603

@<SCITEGIC>MOL_PROPERTY
W(PB)
SciTegic.value.DoubleValue
-75.942

@<SCITEGIC>MOL_PROPERTY
W(SA)
SciTegic.value.DoubleValue
6.339

@<SCITEGIC>MOL_PROPERTY
Valence
SciTegic.value.DoubleValue
146.721

@<SCITEGIC>MOL_PROPERTY
Coulomb
SciTegic.value.DoubleValue
155.909

@<SCITEGIC>MOL_PROPERTY
VdW
SciTegic.value.DoubleValue
-27.251

@<SCITEGIC>MOL_PROPERTY
VdW6
SciTegic.value.DoubleValue
-183.847

@<SCITEGIC>MOL_PROPERTY
VdW12
SciTegic.value.DoubleValue
156.596

@<SCITEGIC>MOL_PROPERTY
Bond
SciTegic.value.DoubleValue
4.275

@<SCITEGIC>MOL_PROPERTY
Angle
SciTegic.value.DoubleValue
10.216

@<SCITEGIC>MOL_PROPERTY
Pdih
SciTegic.value.DoubleValue
132.230

@<SCITEGIC>MOL_PROPERTY
Idih
SciTegic.value.DoubleValue
0.000

@<SCITEGIC>MOL_PROPERTY
Tether
SciTegic.value.DoubleValue
0.000

