@<TRIPOS>MOLECULE
CD_guest-s9_vm2_single.mol2 : vm2 host+ligand conformer 1
         146         151           2
SMALL
USER_CHARGES
 
@<TRIPOS>ATOM
       1    C1      16.113570   14.987941   20.570852 C.3        1 MOL1         0.2972
       2    H1      15.056343   14.869138   20.300934 H          1 MOL1         0.0751
       3    O1      16.430758   16.360605   20.887021 O.3        1 MOL1        -0.3740
       4    C2      16.507657   14.068437   21.756524 C.3        1 MOL1         0.1003
       5    H2      16.408202   13.030684   21.411086 H          1 MOL1         0.0783
       6    O2      15.662673   14.261480   22.901393 O.3        1 MOL1        -0.5519
       7    H3      14.786919   13.871298   22.692518 H          1 MOL1         0.3769
       8    C3      17.990797   14.297655   22.135418 C.3        1 MOL1         0.1053
       9    H4      18.088976   15.318700   22.528498 H          1 MOL1         0.0783
      10    O3      18.355505   13.354716   23.149000 O.3        1 MOL1        -0.5519
      11    H5      17.582742   13.331909   23.758558 H          1 MOL1         0.3769
      12    C4      18.925193   14.166528   20.898427 C.3        1 MOL1         0.1018
      13    H6      19.084521   13.104221   20.669817 H          1 MOL1         0.0783
      14    C5      18.368334   14.868410   19.627296 C.3        1 MOL1         0.1043
      15    H7      18.526687   15.949812   19.720082 H          1 MOL1         0.0783
      16    O4      16.954044   14.587995   19.469061 O.3        1 MOL1        -0.3740
      17    C6      19.088748   14.391110   18.349698 C.3        1 MOL1         0.0138
      18    H8      18.874097   13.326181   18.188192 H          1 MOL1         0.0794
      19    H9      20.173566   14.496934   18.485611 H          1 MOL1         0.0794
      20    O5      18.659976   15.166086   17.228600 O.3        1 MOL1        -0.5486
      21    H10     17.676978   15.135871   17.236021 H          1 MOL1         0.3769
      22    C7      15.025364   20.061936   21.956828 C.3        1 MOL1         0.2972
      23    H11     14.449456   20.934625   22.288838 H          1 MOL1         0.0751
      24    O6      16.262690   20.452154   21.324283 O.3        1 MOL1        -0.3740
      25    C8      15.354771   19.151506   23.165871 C.3        1 MOL1         0.1003
      26    H12     14.400019   18.860527   23.622439 H          1 MOL1         0.0783
      27    O7      16.146847   19.863503   24.135205 O.3        1 MOL1        -0.5519
      28    H13     15.933746   20.821554   24.030911 H          1 MOL1         0.3769
      29    C9      16.083033   17.861929   22.710813 C.3        1 MOL1         0.1053
      30    H14     17.091115   18.144145   22.389357 H          1 MOL1         0.0783
      31    O8      16.162261   16.950778   23.812262 O.3        1 MOL1        -0.5519
      32    H15     16.156205   16.035655   23.444293 H          1 MOL1         0.3769
      33    C10     15.405645   17.168102   21.500799 C.3        1 MOL1         0.1018
      34    H16     14.559014   16.566912   21.857640 H          1 MOL1         0.0783
      35    C11     14.932253   18.168601   20.410365 C.3        1 MOL1         0.1043
      36    H17     15.816398   18.528161   19.867982 H          1 MOL1         0.0783
      37    O9      14.249317   19.291555   21.015808 O.3        1 MOL1        -0.3740
      38    C12     13.978456   17.534010   19.373873 C.3        1 MOL1         0.0138
      39    H18     14.520528   16.757282   18.818334 H          1 MOL1         0.0794
      40    H19     13.679490   18.304275   18.650353 H          1 MOL1         0.0794
      41    O10     12.824953   16.972227   20.006580 O.3        1 MOL1        -0.5486
      42    H20     12.399205   17.705220   20.504783 H          1 MOL1         0.3769
      43    C13     18.474551   23.946983   20.798238 C.3        1 MOL1         0.2972
      44    H21     18.828784   24.948667   20.521947 H          1 MOL1         0.0751
      45    O11     19.559105   23.093264   21.212499 O.3        1 MOL1        -0.3740
      46    C14     17.431276   24.017816   21.943347 C.3        1 MOL1         0.1003
      47    H22     16.581854   24.605624   21.571646 H          1 MOL1         0.0783
      48    O12     17.967260   24.662825   23.108973 O.3        1 MOL1        -0.5519
      49    H23     18.797420   24.183644   23.359920 H          1 MOL1         0.3769
      50    C15     16.911205   22.602333   22.296610 C.3        1 MOL1         0.1053
      51    H24     17.748728   22.034482   22.720983 H          1 MOL1         0.0783
      52    O13     15.870400   22.723314   23.272584 O.3        1 MOL1        -0.5519
      53    H25     16.179822   23.428443   23.885821 H          1 MOL1         0.3769
      54    C16     16.408199   21.855938   21.025801 C.3        1 MOL1         0.1018
      55    H26     15.455464   22.290487   20.694699 H          1 MOL1         0.0783
      56    C17     17.425899   21.944229   19.857939 C.3        1 MOL1         0.1043
      57    H27     18.296073   21.318953   20.096556 H          1 MOL1         0.0783
      58    O14     17.829233   23.323058   19.669036 O.3        1 MOL1        -0.3740
      59    C18     16.825699   21.450604   18.525422 C.3        1 MOL1         0.0138
      60    H28     16.002514   22.114766   18.229695 H          1 MOL1         0.0794
      61    H29     16.409536   20.444481   18.664078 H          1 MOL1         0.0794
      62    O15     17.837316   21.423110   17.516960 O.3        1 MOL1        -0.5486
      63    H30     18.244590   22.317805   17.515536 H          1 MOL1         0.3769
      64    C19     23.586420   22.896879   21.916016 C.3        1 MOL1         0.2972
      65    H31     24.657905   23.033000   22.111300 H          1 MOL1         0.0751
      66    O16     23.271430   21.536144   21.548004 O.3        1 MOL1        -0.3740
      67    C20     22.756930   23.277711   23.167208 C.3        1 MOL1         0.1003
      68    H32     22.909617   24.348783   23.353624 H          1 MOL1         0.0783
      69    O17     23.170504   22.534391   24.324238 O.3        1 MOL1        -0.5519
      70    H33     23.734711   21.785460   24.008201 H          1 MOL1         0.3769
      71    C21     21.255212   23.046896   22.894780 C.3        1 MOL1         0.1053
      72    H34     21.113037   21.970055   22.768036 H          1 MOL1         0.0783
      73    O18     20.489232   23.502796   24.013055 O.3        1 MOL1        -0.5519
      74    H35     20.986670   23.186427   24.800879 H          1 MOL1         0.3769
      75    C22     20.783824   23.747817   21.595929 C.3        1 MOL1         0.1018
      76    H36     20.632219   24.814133   21.810846 H          1 MOL1         0.0783
      77    C23     21.777071   23.573321   20.408785 C.3        1 MOL1         0.1043
      78    H37     21.660839   22.555399   20.014065 H          1 MOL1         0.0783
      79    O19     23.146548   23.762775   20.848442 O.3        1 MOL1        -0.3740
      80    C24     21.515721   24.552143   19.242710 C.3        1 MOL1         0.0138
      81    H38     20.527974   24.341119   18.812051 H          1 MOL1         0.0794
      82    H39     22.260241   24.371047   18.455828 H          1 MOL1         0.0794
      83    O20     21.580865   25.911068   19.684337 O.3        1 MOL1        -0.5486
      84    H40     22.475753   26.031959   20.073259 H          1 MOL1         0.3769
      85    C25     24.904814   17.777927   20.954083 C.3        1 MOL1         0.2972
      86    H41     25.540506   16.916169   20.712974 H          1 MOL1         0.0751
      87    O21     23.529747   17.379340   21.138252 O.3        1 MOL1        -0.3740
      88    C26     25.423356   18.514356   22.220293 C.3        1 MOL1         0.1003
      89    H42     26.436602   18.869270   21.990932 H          1 MOL1         0.0783
      90    O22     25.485731   17.649145   23.363997 O.3        1 MOL1        -0.5519
      91    H43     24.556013   17.375155   23.568312 H          1 MOL1         0.3769
      92    C27     24.548372   19.750822   22.533453 C.3        1 MOL1         0.1053
      93    H44     23.552255   19.394652   22.829250 H          1 MOL1         0.0783
      94    O23     25.138626   20.484670   23.609997 O.3        1 MOL1        -0.5519
      95    H45     25.434267   19.801909   24.253950 H          1 MOL1         0.3769
      96    C28     24.389126   20.664863   21.291224 C.3        1 MOL1         0.1018
      97    H46     25.318138   21.227460   21.128872 H          1 MOL1         0.0783
      98    C29     24.051574   19.868508   20.001158 C.3        1 MOL1         0.1043
      99    H47     23.010962   19.524282   20.064044 H          1 MOL1         0.0783
     100    O24     24.937931   18.728543   19.869354 O.3        1 MOL1        -0.3740
     101    C30     24.190986   20.720242   18.719710 C.3        1 MOL1         0.0138
     102    H48     23.518272   21.585196   18.787470 H          1 MOL1         0.0794
     103    H49     23.869397   20.118606   17.859137 H          1 MOL1         0.0794
     104    O25     25.540188   21.160450   18.539633 O.3        1 MOL1        -0.5486
     105    H50     26.096411   20.349990   18.564648 H          1 MOL1         0.3769
     106    C31     21.154746   14.059580   21.917324 C.3        1 MOL1         0.2972
     107    H51     20.764586   13.075460   22.206846 H          1 MOL1         0.0751
     108    O26     20.169911   14.830439   21.199249 O.3        1 MOL1        -0.3740
     109    C32     21.610952   14.850767   23.172288 C.3        1 MOL1         0.1003
     110    H52     22.392313   14.255393   23.662391 H          1 MOL1         0.0783
     111    O27     20.532200   15.064270   24.095994 O.3        1 MOL1        -0.5519
     112    H53     19.849213   14.376728   23.908304 H          1 MOL1         0.3769
     113    C33     22.219383   16.212474   22.773252 C.3        1 MOL1         0.1053
     114    H54     21.412386   16.824204   22.356849 H          1 MOL1         0.0783
     115    O28     22.753606   16.842271   23.941520 O.3        1 MOL1        -0.5519
     116    H55     22.099621   16.639049   24.647812 H          1 MOL1         0.3769
     117    C34     23.311292   16.063021   21.687125 C.3        1 MOL1         0.1018
     118    H56     24.217652   15.655794   22.154289 H          1 MOL1         0.0783
     119    C35     22.859510   15.135965   20.523385 C.3        1 MOL1         0.1043
     120    H57     22.094536   15.663232   19.937817 H          1 MOL1         0.0783
     121    O29     22.304550   13.906814   21.057052 O.3        1 MOL1        -0.3740
     122    C36     24.004682   14.755288   19.558520 C.3        1 MOL1         0.0138
     123    H58     24.357096   15.660613   19.046727 H          1 MOL1         0.0794
     124    H59     23.608146   14.079765   18.788716 H          1 MOL1         0.0794
     125    O30     25.085966   14.131570   20.257248 O.3        1 MOL1        -0.5486
     126    H60     24.706618   13.343147   20.705625 H          1 MOL1         0.3769
     127    C1      19.649767   18.469444   20.700799 C.3        1 MOL1        -0.2224
     128    H1      18.641827   18.805041   20.422709 H          1 MOL1         0.1052
     129    H2      20.246617   18.401400   19.782151 H          1 MOL1         0.1052
     130    H3      19.565023   17.459934   21.117977 H          1 MOL1         0.1052
     131    C2      20.303794   19.444241   21.705677 C.3        1 MOL1        -0.1209
     132    H4      20.388848   20.431137   21.231347 H          1 MOL1         0.1041
     133    H5      21.329418   19.122433   21.931517 H          1 MOL1         0.1041
     134    C3      19.494510   19.575318   23.016737 C.3        1 MOL1        -0.1274
     135    H6      19.916260   20.373946   23.638335 H          1 MOL1         0.1041
     136    H7      18.471711   19.881910   22.774368 H          1 MOL1         0.1041
     137    C4      19.468930   18.276908   23.845607 C.3        1 MOL1         0.0313
     138    H8      20.475518   18.054063   24.207207 H          1 MOL1         0.1015
     139    H9      19.134714   17.439306   23.228497 H          1 MOL1         0.1015
     140    N1      18.544885   18.351985   25.044029 N.4        1 MOL1        -0.4809
     141    H10     17.558295   18.471825   24.723933 H          1 MOL1         0.3726
     142    H11     18.750004   19.185166   25.613024 H          1 MOL1         0.3726
     143    C5      18.675111   17.081625   25.871162 C.3        1 MOL1        -0.0677
     144    H12     18.401661   16.225586   25.249899 H          1 MOL1         0.1026
     145    H13     19.707491   16.974725   26.210143 H          1 MOL1         0.1026
     146    H14     18.003598   17.142416   26.729901 H          1 MOL1         0.1026
@<TRIPOS>BOND
    1     1     2    1
    2     1     3    1
    3     1     4    1
    4     4     5    1
    5     4     6    1
    6     6     7    1
    7     4     8    1
    8     8     9    1
    9     8    10    1
   10    10    11    1
   11     8    12    1
   12    12    13    1
   13    12    14    1
   14    14    15    1
   15     1    16    1
   16    14    16    1
   17    14    17    1
   18    17    18    1
   19    17    19    1
   20    17    20    1
   21    20    21    1
   22    22    23    1
   23    22    24    1
   24    22    25    1
   25    25    26    1
   26    25    27    1
   27    27    28    1
   28    25    29    1
   29    29    30    1
   30    29    31    1
   31    31    32    1
   32     3    33    1
   33    29    33    1
   34    33    34    1
   35    33    35    1
   36    35    36    1
   37    22    37    1
   38    35    37    1
   39    35    38    1
   40    38    39    1
   41    38    40    1
   42    38    41    1
   43    41    42    1
   44    43    44    1
   45    43    45    1
   46    43    46    1
   47    46    47    1
   48    46    48    1
   49    48    49    1
   50    46    50    1
   51    50    51    1
   52    50    52    1
   53    52    53    1
   54    24    54    1
   55    50    54    1
   56    54    55    1
   57    54    56    1
   58    56    57    1
   59    43    58    1
   60    56    58    1
   61    56    59    1
   62    59    60    1
   63    59    61    1
   64    59    62    1
   65    62    63    1
   66    64    65    1
   67    64    66    1
   68    64    67    1
   69    67    68    1
   70    67    69    1
   71    69    70    1
   72    67    71    1
   73    71    72    1
   74    71    73    1
   75    73    74    1
   76    45    75    1
   77    71    75    1
   78    75    76    1
   79    75    77    1
   80    77    78    1
   81    64    79    1
   82    77    79    1
   83    77    80    1
   84    80    81    1
   85    80    82    1
   86    80    83    1
   87    83    84    1
   88    85    86    1
   89    85    87    1
   90    85    88    1
   91    88    89    1
   92    88    90    1
   93    90    91    1
   94    88    92    1
   95    92    93    1
   96    92    94    1
   97    94    95    1
   98    66    96    1
   99    92    96    1
  100    96    97    1
  101    96    98    1
  102    98    99    1
  103    85   100    1
  104    98   100    1
  105    98   101    1
  106   101   102    1
  107   101   103    1
  108   101   104    1
  109   104   105    1
  110   106   107    1
  111    12   108    1
  112   106   108    1
  113   106   109    1
  114   109   110    1
  115   109   111    1
  116   111   112    1
  117   109   113    1
  118   113   114    1
  119   113   115    1
  120   115   116    1
  121    87   117    1
  122   113   117    1
  123   117   118    1
  124   117   119    1
  125   119   120    1
  126   106   121    1
  127   119   121    1
  128   119   122    1
  129   122   123    1
  130   122   124    1
  131   122   125    1
  132   125   126    1
  133   127   128    1
  134   127   129    1
  135   127   130    1
  136   127   131    1
  137   131   132    1
  138   131   133    1
  139   131   134    1
  140   134   135    1
  141   134   136    1
  142   134   137    1
  143   137   138    1
  144   137   139    1
  145   137   140    1
  146   140   141    1
  147   140   142    1
  148   140   143    1
  149   143   144    1
  150   143   145    1
  151   143   146    1
@<TRIPOS>SUBSTRUCTURE
       1 MOL1            1 RESIDUE      1      MOL     
       2 MOL1          146 RESIDUE      1      MOL     
@<SCITEGIC>MOL_PROPERTY
VM2 Rank
SciTegic.value.IntegerValue
1

@<SCITEGIC>MOL_PROPERTY
Conf_Id
SciTegic.value.IntegerValue
14309

@<SCITEGIC>MOL_PROPERTY
Probability
SciTegic.value.DoubleValue
1.89

@<SCITEGIC>MOL_PROPERTY
Sum Probability
SciTegic.value.DoubleValue
1.89

@<SCITEGIC>MOL_PROPERTY
Delta G
SciTegic.value.DoubleValue
0.000

@<SCITEGIC>MOL_PROPERTY
G
SciTegic.value.DoubleValue
577.469

@<SCITEGIC>MOL_PROPERTY
E
SciTegic.value.DoubleValue
384.272

@<SCITEGIC>MOL_PROPERTY
-TS
SciTegic.value.DoubleValue
193.198

@<SCITEGIC>MOL_PROPERTY
U+W
SciTegic.value.DoubleValue
255.501

@<SCITEGIC>MOL_PROPERTY
U
SciTegic.value.DoubleValue
328.567

@<SCITEGIC>MOL_PROPERTY
W
SciTegic.value.DoubleValue
-73.066

@<SCITEGIC>MOL_PROPERTY
W(PB)
SciTegic.value.DoubleValue
-79.275

@<SCITEGIC>MOL_PROPERTY
W(SA)
SciTegic.value.DoubleValue
6.209

@<SCITEGIC>MOL_PROPERTY
Valence
SciTegic.value.DoubleValue
145.395

@<SCITEGIC>MOL_PROPERTY
Coulomb
SciTegic.value.DoubleValue
206.470

@<SCITEGIC>MOL_PROPERTY
VdW
SciTegic.value.DoubleValue
-23.298

@<SCITEGIC>MOL_PROPERTY
VdW6
SciTegic.value.DoubleValue
-175.173

@<SCITEGIC>MOL_PROPERTY
VdW12
SciTegic.value.DoubleValue
151.875

@<SCITEGIC>MOL_PROPERTY
Bond
SciTegic.value.DoubleValue
4.528

@<SCITEGIC>MOL_PROPERTY
Angle
SciTegic.value.DoubleValue
10.309

@<SCITEGIC>MOL_PROPERTY
Pdih
SciTegic.value.DoubleValue
130.558

@<SCITEGIC>MOL_PROPERTY
Idih
SciTegic.value.DoubleValue
0.000

@<SCITEGIC>MOL_PROPERTY
Tether
SciTegic.value.DoubleValue
0.000

@<TRIPOS>MOLECULE
CD_guest-s9_vm2_single.mol2 : vm2 host+ligand conformer 2
         146         151           2
SMALL
USER_CHARGES
 
@<TRIPOS>ATOM
       1    C1      16.148516   15.057611   20.467301 C.3        1 MOL1         0.2972
       2    H1      15.092427   14.950267   20.188242 H          1 MOL1         0.0751
       3    O1      16.470593   16.422434   20.810946 O.3        1 MOL1        -0.3740
       4    C2      16.527966   14.113532   21.638538 C.3        1 MOL1         0.1003
       5    H2      16.428575   13.082871   21.272425 H          1 MOL1         0.0783
       6    O2      15.672123   14.288727   22.778385 O.3        1 MOL1        -0.5519
       7    H3      14.797397   13.904929   22.553969 H          1 MOL1         0.3769
       8    C3      18.007606   14.330062   22.037179 C.3        1 MOL1         0.1053
       9    H4      18.105594   15.345178   22.445252 H          1 MOL1         0.0783
      10    O3      18.356372   13.372783   23.043125 O.3        1 MOL1        -0.5519
      11    H5      17.574845   13.343368   23.641096 H          1 MOL1         0.3769
      12    C4      18.955923   14.212424   20.809741 C.3        1 MOL1         0.1018
      13    H6      19.122125   13.152351   20.576291 H          1 MOL1         0.0783
      14    C5      18.410137   14.926147   19.538325 C.3        1 MOL1         0.1043
      15    H7      18.574553   16.005006   19.648318 H          1 MOL1         0.0783
      16    O4      16.992168   14.674836   19.362628 O.3        1 MOL1        -0.3740
      17    C6      19.132180   14.478049   18.248514 C.3        1 MOL1         0.0138
      18    H8      20.207190   14.677941   18.352127 H          1 MOL1         0.0794
      19    H9      18.763152   15.082250   17.409008 H          1 MOL1         0.0794
      20    O5      18.911394   13.087858   17.992686 O.3        1 MOL1        -0.5486
      21    H10     17.935989   12.963508   17.987216 H          1 MOL1         0.3769
      22    C7      15.055780   20.106015   21.934435 C.3        1 MOL1         0.2972
      23    H11     14.476407   20.972252   22.277147 H          1 MOL1         0.0751
      24    O6      16.298795   20.508105   21.320958 O.3        1 MOL1        -0.3740
      25    C8      15.374580   19.173890   23.129631 C.3        1 MOL1         0.1003
      26    H12     14.415854   18.874344   23.572117 H          1 MOL1         0.0783
      27    O7      16.157191   19.868997   24.118726 O.3        1 MOL1        -0.5519
      28    H13     15.945922   20.828844   24.028144 H          1 MOL1         0.3769
      29    C9      16.107662   17.892983   22.657846 C.3        1 MOL1         0.1053
      30    H14     17.118637   18.181035   22.351035 H          1 MOL1         0.0783
      31    O8      16.176357   16.961303   23.742737 O.3        1 MOL1        -0.5519
      32    H15     16.170023   16.053132   23.357922 H          1 MOL1         0.3769
      33    C10     15.441378   17.221607   21.429308 C.3        1 MOL1         0.1018
      34    H16     14.590479   16.615974   21.768072 H          1 MOL1         0.0783
      35    C11     14.978473   18.241621   20.352612 C.3        1 MOL1         0.1043
      36    H17     15.867777   18.611160   19.825698 H          1 MOL1         0.0783
      37    O9      14.289153   19.352982   20.971947 O.3        1 MOL1        -0.3740
      38    C12     14.034906   17.626108   19.295401 C.3        1 MOL1         0.0138
      39    H18     14.582723   16.860326   18.730343 H          1 MOL1         0.0794
      40    H19     13.742103   18.409711   18.583778 H          1 MOL1         0.0794
      41    O10     12.875960   17.051773   19.906527 O.3        1 MOL1        -0.5486
      42    H20     12.444533   17.775135   20.413842 H          1 MOL1         0.3769
      43    C13     18.507625   24.013332   20.864820 C.3        1 MOL1         0.2972
      44    H21     18.863786   25.019192   20.606816 H          1 MOL1         0.0751
      45    O11     19.588705   23.153807   21.276142 O.3        1 MOL1        -0.3740
      46    C14     17.453506   24.066115   22.000973 C.3        1 MOL1         0.1003
      47    H22     16.605646   24.656004   21.629001 H          1 MOL1         0.0783
      48    O12     17.975972   24.697653   23.179946 O.3        1 MOL1        -0.5519
      49    H23     18.804966   24.217636   23.433055 H          1 MOL1         0.3769
      50    C15     16.935023   22.644209   22.329903 C.3        1 MOL1         0.1053
      51    H24     17.770973   22.071934   22.751589 H          1 MOL1         0.0783
      52    O13     15.886847   22.747244   23.300034 O.3        1 MOL1        -0.5519
      53    H25     16.189512   23.444101   23.925948 H          1 MOL1         0.3769
      54    C16     16.443165   21.916334   21.044241 C.3        1 MOL1         0.1018
      55    H26     15.491782   22.353757   20.713002 H          1 MOL1         0.0783
      56    C17     17.468642   22.024199   19.884786 C.3        1 MOL1         0.1043
      57    H27     18.337632   21.395441   20.118836 H          1 MOL1         0.0783
      58    O14     17.872737   23.406052   19.720620 O.3        1 MOL1        -0.3740
      59    C18     16.876072   21.552109   18.541009 C.3        1 MOL1         0.0138
      60    H28     16.059501   22.225458   18.247721 H          1 MOL1         0.0794
      61    H29     16.452165   20.547114   18.663004 H          1 MOL1         0.0794
      62    O15     17.894960   21.530767   17.539880 O.3        1 MOL1        -0.5486
      63    H30     18.309917   22.421807   17.553935 H          1 MOL1         0.3769
      64    C19     23.604935   22.935963   22.023891 C.3        1 MOL1         0.2972
      65    H31     24.674762   23.062826   22.234009 H          1 MOL1         0.0751
      66    O16     23.285938   21.582487   21.635797 O.3        1 MOL1        -0.3740
      67    C20     22.763390   23.304917   23.270022 C.3        1 MOL1         0.1003
      68    H32     22.919558   24.372493   23.472877 H          1 MOL1         0.0783
      69    O17     23.161391   22.542498   24.420190 O.3        1 MOL1        -0.5519
      70    H33     23.727288   21.797168   24.098853 H          1 MOL1         0.3769
      71    C21     21.263757   23.084998   22.977994 C.3        1 MOL1         0.1053
      72    H34     21.117105   22.010336   22.838306 H          1 MOL1         0.0783
      73    O18     20.488158   23.532655   24.092850 O.3        1 MOL1        -0.5519
      74    H35     20.974173   23.203343   24.882489 H          1 MOL1         0.3769
      75    C22     20.810076   23.801600   21.681205 C.3        1 MOL1         0.1018
      76    H36     20.658343   24.865939   21.905620 H          1 MOL1         0.0783
      77    C23     21.816233   23.637123   20.503259 C.3        1 MOL1         0.1043
      78    H37     21.698910   22.624693   20.094442 H          1 MOL1         0.0783
      79    O19     23.182661   23.814533   20.959612 O.3        1 MOL1        -0.3740
      80    C24     21.571221   24.630949   19.346430 C.3        1 MOL1         0.0138
      81    H38     20.585581   24.431644   18.905441 H          1 MOL1         0.0794
      82    H39     22.320604   24.453702   18.563340 H          1 MOL1         0.0794
      83    O20     21.642001   25.984162   19.804432 O.3        1 MOL1        -0.5486
      84    H40     22.533468   26.093987   20.204296 H          1 MOL1         0.3769
      85    C25     24.923918   17.834416   20.984310 C.3        1 MOL1         0.2972
      86    H41     25.565020   16.981068   20.728139 H          1 MOL1         0.0751
      87    O21     23.550217   17.426052   21.155133 O.3        1 MOL1        -0.3740
      88    C26     25.433333   18.548468   22.267097 C.3        1 MOL1         0.1003
      89    H42     26.448318   18.906709   22.051083 H          1 MOL1         0.0783
      90    O22     25.487395   17.664225   23.396483 O.3        1 MOL1        -0.5519
      91    H43     24.556548   17.384862   23.588069 H          1 MOL1         0.3769
      92    C27     24.556492   19.779904   22.595175 C.3        1 MOL1         0.1053
      93    H44     23.560631   19.418688   22.885795 H          1 MOL1         0.0783
      94    O23     25.144620   20.502563   23.680383 O.3        1 MOL1        -0.5519
      95    H45     25.436290   19.813555   24.319453 H          1 MOL1         0.3769
      96    C28     24.396951   20.709008   21.364171 C.3        1 MOL1         0.1018
      97    H46     25.328164   21.267802   21.200314 H          1 MOL1         0.0783
      98    C29     24.049218   19.930792   20.067988 C.3        1 MOL1         0.1043
      99    H47     23.010061   19.581337   20.127764 H          1 MOL1         0.0783
     100    O24     24.954788   18.808474   19.919896 O.3        1 MOL1        -0.3740
     101    C30     24.192786   20.813155   18.810774 C.3        1 MOL1         0.0138
     102    H48     25.246462   21.096032   18.684405 H          1 MOL1         0.0794
     103    H49     23.613950   21.736146   18.945258 H          1 MOL1         0.0794
     104    O25     23.721178   20.105923   17.662671 O.3        1 MOL1        -0.5486
     105    H50     24.189926   19.241474   17.662999 H          1 MOL1         0.3769
     106    C31     21.172646   14.093426   21.849289 C.3        1 MOL1         0.2972
     107    H51     20.779260   13.104328   22.116704 H          1 MOL1         0.0751
     108    O26     20.195075   14.877242   21.134364 O.3        1 MOL1        -0.3740
     109    C32     21.615288   14.861092   23.123635 C.3        1 MOL1         0.1003
     110    H52     22.390813   14.256102   23.611213 H          1 MOL1         0.0783
     111    O27     20.526968   15.058946   24.039581 O.3        1 MOL1        -0.5519
     112    H53     19.844290   14.377194   23.830538 H          1 MOL1         0.3769
     113    C33     22.229251   16.229144   22.756321 C.3        1 MOL1         0.1053
     114    H54     21.426841   16.849153   22.343210 H          1 MOL1         0.0783
     115    O28     22.752223   16.837040   23.941253 O.3        1 MOL1        -0.5519
     116    H55     22.091332   16.621048   24.637234 H          1 MOL1         0.3769
     117    C34     23.332065   16.099898   21.678643 C.3        1 MOL1         0.1018
     118    H56     24.235372   15.687740   22.147331 H          1 MOL1         0.0783
     119    C35     22.893806   15.192404   20.494608 C.3        1 MOL1         0.1043
     120    H57     22.134935   15.728828   19.909599 H          1 MOL1         0.0783
     121    O29     22.333585   13.955005   21.001720 O.3        1 MOL1        -0.3740
     122    C36     24.049334   14.827859   19.535934 C.3        1 MOL1         0.0138
     123    H58     24.405347   15.741204   19.041275 H          1 MOL1         0.0794
     124    H59     23.661488   14.163231   18.752284 H          1 MOL1         0.0794
     125    O30     25.124635   14.195409   20.236042 O.3        1 MOL1        -0.5486
     126    H60     24.742188   13.399270   20.667848 H          1 MOL1         0.3769
     127    C1      19.691434   18.536112   20.693747 C.3        1 MOL1        -0.2224
     128    H1      19.600063   17.518224   21.089010 H          1 MOL1         0.1052
     129    H2      18.687487   18.880687   20.412328 H          1 MOL1         0.1052
     130    H3      20.298642   18.487008   19.780566 H          1 MOL1         0.1052
     131    C2      20.337563   19.488806   21.724564 C.3        1 MOL1        -0.1209
     132    H4      20.431945   20.484146   21.269815 H          1 MOL1         0.1041
     133    H5      21.359251   19.158336   21.955152 H          1 MOL1         0.1041
     134    C3      19.515365   19.598351   23.029459 C.3        1 MOL1        -0.1274
     135    H6      19.933787   20.383823   23.669791 H          1 MOL1         0.1041
     136    H7      18.495953   19.912966   22.782848 H          1 MOL1         0.1041
     137    C4      19.478334   18.284970   23.833926 C.3        1 MOL1         0.0313
     138    H8      20.480996   18.052360   24.200221 H          1 MOL1         0.1015
     139    H9      19.147087   17.459941   23.198519 H          1 MOL1         0.1015
     140    N1      18.544119   18.340945   25.025435 N.4        1 MOL1        -0.4809
     141    H10     17.560696   18.468474   24.698666 H          1 MOL1         0.3726
     142    H11     18.745888   19.163521   25.610801 H          1 MOL1         0.3726
     143    C5      18.664480   17.055915   25.831128 C.3        1 MOL1        -0.0677
     144    H12     18.395038   16.211544   25.192376 H          1 MOL1         0.1026
     145    H13     19.693540   16.940913   26.177454 H          1 MOL1         0.1026
     146    H14     17.985348   17.102887   26.684724 H          1 MOL1         0.1026
@<TRIPOS>BOND
    1     1     2    1
    2     1     3    1
    3     1     4    1
    4     4     5    1
    5     4     6    1
    6     6     7    1
    7     4     8    1
    8     8     9    1
    9     8    10    1
   10    10    11    1
   11     8    12    1
   12    12    13    1
   13    12    14    1
   14    14    15    1
   15     1    16    1
   16    14    16    1
   17    14    17    1
   18    17    18    1
   19    17    19    1
   20    17    20    1
   21    20    21    1
   22    22    23    1
   23    22    24    1
   24    22    25    1
   25    25    26    1
   26    25    27    1
   27    27    28    1
   28    25    29    1
   29    29    30    1
   30    29    31    1
   31    31    32    1
   32     3    33    1
   33    29    33    1
   34    33    34    1
   35    33    35    1
   36    35    36    1
   37    22    37    1
   38    35    37    1
   39    35    38    1
   40    38    39    1
   41    38    40    1
   42    38    41    1
   43    41    42    1
   44    43    44    1
   45    43    45    1
   46    43    46    1
   47    46    47    1
   48    46    48    1
   49    48    49    1
   50    46    50    1
   51    50    51    1
   52    50    52    1
   53    52    53    1
   54    24    54    1
   55    50    54    1
   56    54    55    1
   57    54    56    1
   58    56    57    1
   59    43    58    1
   60    56    58    1
   61    56    59    1
   62    59    60    1
   63    59    61    1
   64    59    62    1
   65    62    63    1
   66    64    65    1
   67    64    66    1
   68    64    67    1
   69    67    68    1
   70    67    69    1
   71    69    70    1
   72    67    71    1
   73    71    72    1
   74    71    73    1
   75    73    74    1
   76    45    75    1
   77    71    75    1
   78    75    76    1
   79    75    77    1
   80    77    78    1
   81    64    79    1
   82    77    79    1
   83    77    80    1
   84    80    81    1
   85    80    82    1
   86    80    83    1
   87    83    84    1
   88    85    86    1
   89    85    87    1
   90    85    88    1
   91    88    89    1
   92    88    90    1
   93    90    91    1
   94    88    92    1
   95    92    93    1
   96    92    94    1
   97    94    95    1
   98    66    96    1
   99    92    96    1
  100    96    97    1
  101    96    98    1
  102    98    99    1
  103    85   100    1
  104    98   100    1
  105    98   101    1
  106   101   102    1
  107   101   103    1
  108   101   104    1
  109   104   105    1
  110   106   107    1
  111    12   108    1
  112   106   108    1
  113   106   109    1
  114   109   110    1
  115   109   111    1
  116   111   112    1
  117   109   113    1
  118   113   114    1
  119   113   115    1
  120   115   116    1
  121    87   117    1
  122   113   117    1
  123   117   118    1
  124   117   119    1
  125   119   120    1
  126   106   121    1
  127   119   121    1
  128   119   122    1
  129   122   123    1
  130   122   124    1
  131   122   125    1
  132   125   126    1
  133   127   128    1
  134   127   129    1
  135   127   130    1
  136   127   131    1
  137   131   132    1
  138   131   133    1
  139   131   134    1
  140   134   135    1
  141   134   136    1
  142   134   137    1
  143   137   138    1
  144   137   139    1
  145   137   140    1
  146   140   141    1
  147   140   142    1
  148   140   143    1
  149   143   144    1
  150   143   145    1
  151   143   146    1
@<TRIPOS>SUBSTRUCTURE
       1 MOL1            1 RESIDUE      1      MOL     
       2 MOL1          146 RESIDUE      1      MOL     
@<SCITEGIC>MOL_PROPERTY
VM2 Rank
SciTegic.value.IntegerValue
2

@<SCITEGIC>MOL_PROPERTY
Conf_Id
SciTegic.value.IntegerValue
16722

@<SCITEGIC>MOL_PROPERTY
Probability
SciTegic.value.DoubleValue
1.46

@<SCITEGIC>MOL_PROPERTY
Sum Probability
SciTegic.value.DoubleValue
3.35

@<SCITEGIC>MOL_PROPERTY
Delta G
SciTegic.value.DoubleValue
0.155

@<SCITEGIC>MOL_PROPERTY
G
SciTegic.value.DoubleValue
577.624

@<SCITEGIC>MOL_PROPERTY
E
SciTegic.value.DoubleValue
384.390

@<SCITEGIC>MOL_PROPERTY
-TS
SciTegic.value.DoubleValue
193.234

@<SCITEGIC>MOL_PROPERTY
U+W
SciTegic.value.DoubleValue
255.619

@<SCITEGIC>MOL_PROPERTY
U
SciTegic.value.DoubleValue
327.890

@<SCITEGIC>MOL_PROPERTY
W
SciTegic.value.DoubleValue
-72.270

@<SCITEGIC>MOL_PROPERTY
W(PB)
SciTegic.value.DoubleValue
-78.456

@<SCITEGIC>MOL_PROPERTY
W(SA)
SciTegic.value.DoubleValue
6.186

@<SCITEGIC>MOL_PROPERTY
Valence
SciTegic.value.DoubleValue
145.374

@<SCITEGIC>MOL_PROPERTY
Coulomb
SciTegic.value.DoubleValue
205.938

@<SCITEGIC>MOL_PROPERTY
VdW
SciTegic.value.DoubleValue
-23.422

@<SCITEGIC>MOL_PROPERTY
VdW6
SciTegic.value.DoubleValue
-175.146

@<SCITEGIC>MOL_PROPERTY
VdW12
SciTegic.value.DoubleValue
151.724

@<SCITEGIC>MOL_PROPERTY
Bond
SciTegic.value.DoubleValue
4.521

@<SCITEGIC>MOL_PROPERTY
Angle
SciTegic.value.DoubleValue
10.310

@<SCITEGIC>MOL_PROPERTY
Pdih
SciTegic.value.DoubleValue
130.542

@<SCITEGIC>MOL_PROPERTY
Idih
SciTegic.value.DoubleValue
0.000

@<SCITEGIC>MOL_PROPERTY
Tether
SciTegic.value.DoubleValue
0.000

@<TRIPOS>MOLECULE
CD_guest-s9_vm2_single.mol2 : vm2 host+ligand conformer 3
         146         151           2
SMALL
USER_CHARGES
 
@<TRIPOS>ATOM
       1    C1      16.159473   15.004708   20.525659 C.3        1 MOL1         0.2972
       2    H1      15.105517   14.886605   20.242949 H          1 MOL1         0.0751
       3    O1      16.472165   16.376113   20.851587 O.3        1 MOL1        -0.3740
       4    C2      16.540349   14.079781   21.711486 C.3        1 MOL1         0.1003
       5    H2      16.445327   13.043645   21.360004 H          1 MOL1         0.0783
       6    O2      15.682139   14.266977   22.847450 O.3        1 MOL1        -0.5519
       7    H3      14.809075   13.877326   22.626662 H          1 MOL1         0.3769
       8    C3      18.018963   14.307660   22.108500 C.3        1 MOL1         0.1053
       9    H4      18.112317   15.326813   22.507614 H          1 MOL1         0.0783
      10    O3      18.372654   13.359913   23.121489 O.3        1 MOL1        -0.5519
      11    H5      17.593323   13.334198   23.722498 H          1 MOL1         0.3769
      12    C4      18.967472   14.182846   20.881750 C.3        1 MOL1         0.1018
      13    H6      19.129676   13.121720   20.649695 H          1 MOL1         0.0783
      14    C5      18.425125   14.890883   19.607771 C.3        1 MOL1         0.1043
      15    H7      18.581907   15.971925   19.707686 H          1 MOL1         0.0783
      16    O4      17.012897   14.610393   19.431845 O.3        1 MOL1        -0.3740
      17    C6      19.160362   14.419905   18.336282 C.3        1 MOL1         0.0138
      18    H8      18.950691   13.354852   18.169176 H          1 MOL1         0.0794
      19    H9      20.243367   14.528649   18.483859 H          1 MOL1         0.0794
      20    O5      18.740774   15.196982   17.213190 O.3        1 MOL1        -0.5486
      21    H10     17.757798   15.165252   17.211586 H          1 MOL1         0.3769
      22    C7      15.050703   20.070675   21.926973 C.3        1 MOL1         0.2972
      23    H11     14.469350   20.939957   22.258439 H          1 MOL1         0.0751
      24    O6      16.293074   20.467817   21.308896 O.3        1 MOL1        -0.3740
      25    C8      15.370764   19.154294   23.134018 C.3        1 MOL1         0.1003
      26    H12     14.412430   18.859536   23.580544 H          1 MOL1         0.0783
      27    O7      16.153178   19.862339   24.114050 O.3        1 MOL1        -0.5519
      28    H13     15.939124   20.820555   24.013264 H          1 MOL1         0.3769
      29    C9      16.105081   17.868185   22.678962 C.3        1 MOL1         0.1053
      30    H14     17.115811   18.153431   22.368565 H          1 MOL1         0.0783
      31    O8      16.174785   16.951305   23.776288 O.3        1 MOL1        -0.5519
      32    H15     16.170909   16.038100   23.403563 H          1 MOL1         0.3769
      33    C10     15.440334   17.179912   21.458907 C.3        1 MOL1         0.1018
      34    H16     14.590518   16.576466   21.804176 H          1 MOL1         0.0783
      35    C11     14.977287   18.185827   20.369092 C.3        1 MOL1         0.1043
      36    H17     15.866691   18.549974   19.838459 H          1 MOL1         0.0783
      37    O9      14.285884   19.304006   20.973770 O.3        1 MOL1        -0.3740
      38    C12     14.035804   17.555694   19.318713 C.3        1 MOL1         0.0138
      39    H18     14.585169   16.783088   18.764590 H          1 MOL1         0.0794
      40    H19     13.743358   18.329647   18.596466 H          1 MOL1         0.0794
      41    O10     12.876498   16.988344   19.935663 O.3        1 MOL1        -0.5486
      42    H20     12.444179   17.717722   20.433510 H          1 MOL1         0.3769
      43    C13     18.499911   23.970907   20.823079 C.3        1 MOL1         0.2972
      44    H21     18.855251   24.974689   20.555997 H          1 MOL1         0.0751
      45    O11     19.581367   23.116654   21.244371 O.3        1 MOL1        -0.3740
      46    C14     17.444471   24.033457   21.957366 C.3        1 MOL1         0.1003
      47    H22     16.596747   24.619478   21.579019 H          1 MOL1         0.0783
      48    O12     17.965394   24.676079   23.131041 O.3        1 MOL1        -0.5519
      49    H23     18.796124   24.200888   23.387585 H          1 MOL1         0.3769
      50    C15     16.926227   22.614430   22.298905 C.3        1 MOL1         0.1053
      51    H24     17.761666   22.046749   22.727741 H          1 MOL1         0.0783
      52    O13     15.876222   22.726850   23.266012 O.3        1 MOL1        -0.5519
      53    H25     16.177489   23.430224   23.885303 H          1 MOL1         0.3769
      54    C16     16.436984   21.873659   21.019527 C.3        1 MOL1         0.1018
      55    H26     15.485730   22.307174   20.682843 H          1 MOL1         0.0783
      56    C17     17.463924   21.971661   19.860432 C.3        1 MOL1         0.1043
      57    H27     18.333260   21.345850   20.101083 H          1 MOL1         0.0783
      58    O14     17.866901   23.352329   19.683965 O.3        1 MOL1        -0.3740
      59    C18     16.873186   21.486960   18.520360 C.3        1 MOL1         0.0138
      60    H28     16.050753   22.151971   18.224458 H          1 MOL1         0.0794
      61    H29     16.457771   20.479169   18.648873 H          1 MOL1         0.0794
      62    O15     17.890699   21.468632   17.517813 O.3        1 MOL1        -0.5486
      63    H30     18.300512   22.362086   17.529124 H          1 MOL1         0.3769
      64    C19     23.600593   22.915951   21.989682 C.3        1 MOL1         0.2972
      65    H31     24.670211   23.049155   22.196904 H          1 MOL1         0.0751
      66    O16     23.285579   21.556217   21.620860 O.3        1 MOL1        -0.3740
      67    C20     22.759251   23.299036   23.231678 C.3        1 MOL1         0.1003
      68    H32     22.912652   24.369622   23.420282 H          1 MOL1         0.0783
      69    O17     23.160781   22.552920   24.391282 O.3        1 MOL1        -0.5519
      70    H33     23.725766   21.803138   24.078785 H          1 MOL1         0.3769
      71    C21     21.259879   23.071163   22.944186 C.3        1 MOL1         0.1053
      72    H34     21.115976   21.994392   22.818457 H          1 MOL1         0.0783
      73    O18     20.484172   23.531226   24.053913 O.3        1 MOL1        -0.5519
      74    H35     20.971664   23.213327   24.847302 H          1 MOL1         0.3769
      75    C22     20.803252   23.770077   21.638842 C.3        1 MOL1         0.1018
      76    H36     20.651446   24.837207   21.849529 H          1 MOL1         0.0783
      77    C23     21.807876   23.590762   20.461804 C.3        1 MOL1         0.1043
      78    H37     21.692460   22.572201   20.067938 H          1 MOL1         0.0783
      79    O19     23.174435   23.778277   20.913705 O.3        1 MOL1        -0.3740
      80    C24     21.558849   24.567141   19.291052 C.3        1 MOL1         0.0138
      81    H38     20.573116   24.359065   18.854344 H          1 MOL1         0.0794
      82    H39     22.307612   24.380417   18.509572 H          1 MOL1         0.0794
      83    O20     21.626897   25.927008   19.729348 O.3        1 MOL1        -0.5486
      84    H40     22.518628   26.044769   20.126347 H          1 MOL1         0.3769
      85    C25     24.932547   17.805672   21.011646 C.3        1 MOL1         0.2972
      86    H41     25.574952   16.950423   20.765250 H          1 MOL1         0.0751
      87    O21     23.559480   17.397238   21.187482 O.3        1 MOL1        -0.3740
      88    C26     25.440808   18.535329   22.286009 C.3        1 MOL1         0.1003
      89    H42     26.454689   18.893924   22.065452 H          1 MOL1         0.0783
      90    O22     25.497915   17.663849   23.425100 O.3        1 MOL1        -0.5519
      91    H43     24.567891   17.384394   23.620484 H          1 MOL1         0.3769
      92    C27     24.560560   19.767920   22.600377 C.3        1 MOL1         0.1053
      93    H44     23.565540   19.407291   22.894584 H          1 MOL1         0.0783
      94    O23     25.146193   20.504220   23.677737 O.3        1 MOL1        -0.5519
      95    H45     25.439271   19.823213   24.324671 H          1 MOL1         0.3769
      96    C28     24.399131   20.682957   21.359142 C.3        1 MOL1         0.1018
      97    H46     25.328954   21.242471   21.189939 H          1 MOL1         0.0783
      98    C29     24.054427   19.889984   20.071065 C.3        1 MOL1         0.1043
      99    H47     23.015789   19.539346   20.133144 H          1 MOL1         0.0783
     100    O24     24.962064   18.767636   19.936222 O.3        1 MOL1        -0.3740
     101    C30     24.198419   20.759257   18.804789 C.3        1 MOL1         0.0138
     102    H48     25.251761   21.042860   18.677268 H          1 MOL1         0.0794
     103    H49     23.617549   21.682478   18.928523 H          1 MOL1         0.0794
     104    O25     23.730276   20.039181   17.663329 O.3        1 MOL1        -0.5486
     105    H50     24.199198   19.174903   17.674504 H          1 MOL1         0.3769
     106    C31     21.186666   14.069319   21.922000 C.3        1 MOL1         0.2972
     107    H51     20.794068   13.083033   22.200680 H          1 MOL1         0.0751
     108    O26     20.208238   14.845442   21.200830 O.3        1 MOL1        -0.3740
     109    C32     21.631258   14.851126   23.186897 C.3        1 MOL1         0.1003
     110    H52     22.408731   14.252605   23.679334 H          1 MOL1         0.0783
     111    O27     20.544159   15.056864   24.102557 O.3        1 MOL1        -0.5519
     112    H53     19.861111   14.373490   23.900304 H          1 MOL1         0.3769
     113    C33     22.242095   16.216194   22.803483 C.3        1 MOL1         0.1053
     114    H54     21.438117   16.830643   22.385009 H          1 MOL1         0.0783
     115    O28     22.765961   16.837800   23.980842 O.3        1 MOL1        -0.5519
     116    H55     22.105602   16.629994   24.679827 H          1 MOL1         0.3769
     117    C34     23.343093   16.076491   21.725229 C.3        1 MOL1         0.1018
     118    H56     24.247576   15.669804   22.196447 H          1 MOL1         0.0783
     119    C35     22.903055   15.156688   20.551231 C.3        1 MOL1         0.1043
     120    H57     22.142943   15.687255   19.962265 H          1 MOL1         0.0783
     121    O29     22.344384   13.923337   21.071228 O.3        1 MOL1        -0.3740
     122    C36     24.057249   14.784024   19.594072 C.3        1 MOL1         0.0138
     123    H58     24.412600   15.693171   19.091246 H          1 MOL1         0.0794
     124    H59     23.668550   14.112897   18.816466 H          1 MOL1         0.0794
     125    O30     25.133409   14.157518   20.298169 O.3        1 MOL1        -0.5486
     126    H60     24.751441   13.365708   20.738265 H          1 MOL1         0.3769
     127    C1      19.705203   18.494612   20.703598 C.3        1 MOL1        -0.2224
     128    H1      18.699807   18.828544   20.414593 H          1 MOL1         0.1052
     129    H2      20.315182   18.437960   19.792560 H          1 MOL1         0.1052
     130    H3      19.619681   17.480981   21.110439 H          1 MOL1         0.1052
     131    C2      20.341583   19.463254   21.725458 C.3        1 MOL1        -0.1209
     132    H4      20.432406   20.453524   21.259119 H          1 MOL1         0.1041
     133    H5      21.364020   19.140966   21.964225 H          1 MOL1         0.1041
     134    C3      19.513040   19.583724   23.025410 C.3        1 MOL1        -0.1274
     135    H6      19.924258   20.379121   23.658089 H          1 MOL1         0.1041
     136    H7      18.492977   19.889685   22.770675 H          1 MOL1         0.1041
     137    C4      19.479693   18.279753   23.845231 C.3        1 MOL1         0.0313
     138    H8      20.482749   18.055043   24.215464 H          1 MOL1         0.1015
     139    H9      19.152222   17.446204   23.219049 H          1 MOL1         0.1015
     140    N1      18.543912   18.346448   25.035032 N.4        1 MOL1        -0.4809
     141    H10     17.560224   18.466448   24.706153 H          1 MOL1         0.3726
     142    H11     18.742012   19.176730   25.610701 H          1 MOL1         0.3726
     143    C5      18.668290   17.071707   25.856307 C.3        1 MOL1        -0.0677
     144    H12     18.402337   16.218687   25.227685 H          1 MOL1         0.1026
     145    H13     19.697503   16.964597   26.204719 H          1 MOL1         0.1026
     146    H14     17.988356   17.126592   26.708794 H          1 MOL1         0.1026
@<TRIPOS>BOND
    1     1     2    1
    2     1     3    1
    3     1     4    1
    4     4     5    1
    5     4     6    1
    6     6     7    1
    7     4     8    1
    8     8     9    1
    9     8    10    1
   10    10    11    1
   11     8    12    1
   12    12    13    1
   13    12    14    1
   14    14    15    1
   15     1    16    1
   16    14    16    1
   17    14    17    1
   18    17    18    1
   19    17    19    1
   20    17    20    1
   21    20    21    1
   22    22    23    1
   23    22    24    1
   24    22    25    1
   25    25    26    1
   26    25    27    1
   27    27    28    1
   28    25    29    1
   29    29    30    1
   30    29    31    1
   31    31    32    1
   32     3    33    1
   33    29    33    1
   34    33    34    1
   35    33    35    1
   36    35    36    1
   37    22    37    1
   38    35    37    1
   39    35    38    1
   40    38    39    1
   41    38    40    1
   42    38    41    1
   43    41    42    1
   44    43    44    1
   45    43    45    1
   46    43    46    1
   47    46    47    1
   48    46    48    1
   49    48    49    1
   50    46    50    1
   51    50    51    1
   52    50    52    1
   53    52    53    1
   54    24    54    1
   55    50    54    1
   56    54    55    1
   57    54    56    1
   58    56    57    1
   59    43    58    1
   60    56    58    1
   61    56    59    1
   62    59    60    1
   63    59    61    1
   64    59    62    1
   65    62    63    1
   66    64    65    1
   67    64    66    1
   68    64    67    1
   69    67    68    1
   70    67    69    1
   71    69    70    1
   72    67    71    1
   73    71    72    1
   74    71    73    1
   75    73    74    1
   76    45    75    1
   77    71    75    1
   78    75    76    1
   79    75    77    1
   80    77    78    1
   81    64    79    1
   82    77    79    1
   83    77    80    1
   84    80    81    1
   85    80    82    1
   86    80    83    1
   87    83    84    1
   88    85    86    1
   89    85    87    1
   90    85    88    1
   91    88    89    1
   92    88    90    1
   93    90    91    1
   94    88    92    1
   95    92    93    1
   96    92    94    1
   97    94    95    1
   98    66    96    1
   99    92    96    1
  100    96    97    1
  101    96    98    1
  102    98    99    1
  103    85   100    1
  104    98   100    1
  105    98   101    1
  106   101   102    1
  107   101   103    1
  108   101   104    1
  109   104   105    1
  110   106   107    1
  111    12   108    1
  112   106   108    1
  113   106   109    1
  114   109   110    1
  115   109   111    1
  116   111   112    1
  117   109   113    1
  118   113   114    1
  119   113   115    1
  120   115   116    1
  121    87   117    1
  122   113   117    1
  123   117   118    1
  124   117   119    1
  125   119   120    1
  126   106   121    1
  127   119   121    1
  128   119   122    1
  129   122   123    1
  130   122   124    1
  131   122   125    1
  132   125   126    1
  133   127   128    1
  134   127   129    1
  135   127   130    1
  136   127   131    1
  137   131   132    1
  138   131   133    1
  139   131   134    1
  140   134   135    1
  141   134   136    1
  142   134   137    1
  143   137   138    1
  144   137   139    1
  145   137   140    1
  146   140   141    1
  147   140   142    1
  148   140   143    1
  149   143   144    1
  150   143   145    1
  151   143   146    1
@<TRIPOS>SUBSTRUCTURE
       1 MOL1            1 RESIDUE      1      MOL     
       2 MOL1          146 RESIDUE      1      MOL     
@<SCITEGIC>MOL_PROPERTY
VM2 Rank
SciTegic.value.IntegerValue
3

@<SCITEGIC>MOL_PROPERTY
Conf_Id
SciTegic.value.IntegerValue
24006

@<SCITEGIC>MOL_PROPERTY
Probability
SciTegic.value.DoubleValue
1.43

@<SCITEGIC>MOL_PROPERTY
Sum Probability
SciTegic.value.DoubleValue
4.78

@<SCITEGIC>MOL_PROPERTY
Delta G
SciTegic.value.DoubleValue
0.165

@<SCITEGIC>MOL_PROPERTY
G
SciTegic.value.DoubleValue
577.635

@<SCITEGIC>MOL_PROPERTY
E
SciTegic.value.DoubleValue
384.625

@<SCITEGIC>MOL_PROPERTY
-TS
SciTegic.value.DoubleValue
193.010

@<SCITEGIC>MOL_PROPERTY
U+W
SciTegic.value.DoubleValue
255.854

@<SCITEGIC>MOL_PROPERTY
U
SciTegic.value.DoubleValue
328.216

@<SCITEGIC>MOL_PROPERTY
W
SciTegic.value.DoubleValue
-72.362

@<SCITEGIC>MOL_PROPERTY
W(PB)
SciTegic.value.DoubleValue
-78.531

@<SCITEGIC>MOL_PROPERTY
W(SA)
SciTegic.value.DoubleValue
6.168

@<SCITEGIC>MOL_PROPERTY
Valence
SciTegic.value.DoubleValue
145.529

@<SCITEGIC>MOL_PROPERTY
Coulomb
SciTegic.value.DoubleValue
206.330

@<SCITEGIC>MOL_PROPERTY
VdW
SciTegic.value.DoubleValue
-23.643

@<SCITEGIC>MOL_PROPERTY
VdW6
SciTegic.value.DoubleValue
-174.685

@<SCITEGIC>MOL_PROPERTY
VdW12
SciTegic.value.DoubleValue
151.042

@<SCITEGIC>MOL_PROPERTY
Bond
SciTegic.value.DoubleValue
4.488

@<SCITEGIC>MOL_PROPERTY
Angle
SciTegic.value.DoubleValue
10.232

@<SCITEGIC>MOL_PROPERTY
Pdih
SciTegic.value.DoubleValue
130.809

@<SCITEGIC>MOL_PROPERTY
Idih
SciTegic.value.DoubleValue
0.000

@<SCITEGIC>MOL_PROPERTY
Tether
SciTegic.value.DoubleValue
0.000

@<TRIPOS>MOLECULE
CD_guest-s9_vm2_single.mol2 : vm2 host+ligand conformer 4
         146         151           2
SMALL
USER_CHARGES
 
@<TRIPOS>ATOM
       1    C1      16.125511   14.993394   20.529802 C.3        1 MOL1         0.2972
       2    H1      15.072023   14.874314   20.245759 H          1 MOL1         0.0751
       3    O1      16.437451   16.365683   20.852480 O.3        1 MOL1        -0.3740
       4    C2      16.504866   14.071386   21.718589 C.3        1 MOL1         0.1003
       5    H2      16.411717   13.034326   21.369344 H          1 MOL1         0.0783
       6    O2      15.644411   14.260129   22.852642 O.3        1 MOL1        -0.5519
       7    H3      14.772366   13.868449   22.631379 H          1 MOL1         0.3769
       8    C3      17.982485   14.302178   22.117286 C.3        1 MOL1         0.1053
       9    H4      18.074914   15.323376   22.511298 H          1 MOL1         0.0783
      10    O3      18.335999   13.360341   23.135851 O.3        1 MOL1        -0.5519
      11    H5      17.556009   13.336947   23.736077 H          1 MOL1         0.3769
      12    C4      18.931850   14.172440   20.891915 C.3        1 MOL1         0.1018
      13    H6      19.092941   13.110609   20.662293 H          1 MOL1         0.0783
      14    C5      18.392546   14.879422   19.616366 C.3        1 MOL1         0.1043
      15    H7      18.549204   15.960682   19.716647 H          1 MOL1         0.0783
      16    O4      16.980858   14.597783   19.437966 O.3        1 MOL1        -0.3740
      17    C6      19.130696   14.407901   18.346745 C.3        1 MOL1         0.0138
      18    H8      18.918840   13.343564   18.177825 H          1 MOL1         0.0794
      19    H9      20.213482   14.513610   18.497878 H          1 MOL1         0.0794
      20    O5      18.716891   15.187377   17.223151 O.3        1 MOL1        -0.5486
      21    H10     17.733889   15.156859   17.217160 H          1 MOL1         0.3769
      22    C7      15.003321   20.054139   21.937469 C.3        1 MOL1         0.2972
      23    H11     14.417061   20.919102   22.271154 H          1 MOL1         0.0751
      24    O6      16.240786   20.459149   21.314589 O.3        1 MOL1        -0.3740
      25    C8      15.335326   19.138015   23.141983 C.3        1 MOL1         0.1003
      26    H12     14.381189   18.834972   23.591942 H          1 MOL1         0.0783
      27    O7      16.116900   19.848897   24.120349 O.3        1 MOL1        -0.5519
      28    H13     15.882167   20.803473   24.033773 H          1 MOL1         0.3769
      29    C9      16.077707   17.858870   22.681019 C.3        1 MOL1         0.1053
      30    H14     17.084246   18.152788   22.364008 H          1 MOL1         0.0783
      31    O8      16.162523   16.941831   23.777207 O.3        1 MOL1        -0.5519
      32    H15     16.146484   16.028642   23.404924 H          1 MOL1         0.3769
      33    C10     15.407820   17.167201   21.465635 C.3        1 MOL1         0.1018
      34    H16     14.561746   16.561911   21.816755 H          1 MOL1         0.0783
      35    C11     14.934666   18.170670   20.378017 C.3        1 MOL1         0.1043
      36    H17     15.819480   18.540876   19.843788 H          1 MOL1         0.0783
      37    O9      14.239102   19.283674   20.986896 O.3        1 MOL1        -0.3740
      38    C12     13.992230   17.535688   19.331339 C.3        1 MOL1         0.0138
      39    H18     14.544096   16.767683   18.773329 H          1 MOL1         0.0794
      40    H19     13.691016   18.308693   18.611687 H          1 MOL1         0.0794
      41    O10     12.839801   16.959486   19.953000 O.3        1 MOL1        -0.5486
      42    H20     12.404449   17.685300   20.453398 H          1 MOL1         0.3769
      43    C13     18.454702   23.970672   20.915710 C.3        1 MOL1         0.2972
      44    H21     18.808279   24.979165   20.664967 H          1 MOL1         0.0751
      45    O11     19.533014   23.120756   21.353096 O.3        1 MOL1        -0.3740
      46    C14     17.384495   24.017315   22.038185 C.3        1 MOL1         0.1003
      47    H22     16.543882   24.618710   21.667416 H          1 MOL1         0.0783
      48    O12     17.904840   24.612684   23.239564 O.3        1 MOL1        -0.5519
      49    H23     18.012102   25.573130   23.070981 H          1 MOL1         0.3769
      50    C15     16.854855   22.594828   22.344494 C.3        1 MOL1         0.1053
      51    H24     17.680620   22.020352   22.782198 H          1 MOL1         0.0783
      52    O13     15.789504   22.700143   23.295247 O.3        1 MOL1        -0.5519
      53    H25     16.107519   23.361581   23.951319 H          1 MOL1         0.3769
      54    C16     16.390327   21.869051   21.047491 C.3        1 MOL1         0.1018
      55    H26     15.446821   22.306897   20.695184 H          1 MOL1         0.0783
      56    C17     17.444661   21.978608   19.914893 C.3        1 MOL1         0.1043
      57    H27     18.310582   21.355582   20.173808 H          1 MOL1         0.0783
      58    O14     17.845128   23.361648   19.759189 O.3        1 MOL1        -0.3740
      59    C18     16.892521   21.499238   18.556691 C.3        1 MOL1         0.0138
      60    H28     16.071904   22.159072   18.244615 H          1 MOL1         0.0794
      61    H29     16.483340   20.486666   18.667302 H          1 MOL1         0.0794
      62    O15     17.936162   21.497599   17.580920 O.3        1 MOL1        -0.5486
      63    H30     18.324893   22.400068   17.597065 H          1 MOL1         0.3769
      64    C19     23.597651   22.896945   21.831938 C.3        1 MOL1         0.2972
      65    H31     24.676725   23.045691   21.964879 H          1 MOL1         0.0751
      66    O16     23.273369   21.516614   21.556614 O.3        1 MOL1        -0.3740
      67    C20     22.838121   23.349729   23.102744 C.3        1 MOL1         0.1003
      68    H32     23.018788   24.425052   23.230564 H          1 MOL1         0.0783
      69    O17     23.297449   22.651806   24.267644 O.3        1 MOL1        -0.5519
      70    H33     22.646269   22.884298   24.967585 H          1 MOL1         0.3769
      71    C21     21.319209   23.137503   22.928595 C.3        1 MOL1         0.1053
      72    H34     21.140953   22.058084   22.882830 H          1 MOL1         0.0783
      73    O18     20.622204   23.697953   24.047716 O.3        1 MOL1        -0.5519
      74    H35     19.668442   23.753734   23.795568 H          1 MOL1         0.3769
      75    C22     20.793522   23.765888   21.614359 C.3        1 MOL1         0.1018
      76    H36     20.679917   24.847170   21.768755 H          1 MOL1         0.0783
      77    C23     21.712504   23.493353   20.387569 C.3        1 MOL1         0.1043
      78    H37     21.565820   22.451871   20.072788 H          1 MOL1         0.0783
      79    O19     23.104283   23.698907   20.738100 O.3        1 MOL1        -0.3740
      80    C24     21.395488   24.393197   19.172502 C.3        1 MOL1         0.0138
      81    H38     20.385244   24.163248   18.809435 H          1 MOL1         0.0794
      82    H39     22.096040   24.151891   18.361786 H          1 MOL1         0.0794
      83    O20     21.492054   25.778440   19.516078 O.3        1 MOL1        -0.5486
      84    H40     22.407969   25.917386   19.845433 H          1 MOL1         0.3769
      85    C25     24.902332   17.763474   20.961733 C.3        1 MOL1         0.2972
      86    H41     25.532779   16.898934   20.717184 H          1 MOL1         0.0751
      87    O21     23.527546   17.368589   21.158098 O.3        1 MOL1        -0.3740
      88    C26     25.435542   18.496246   22.224619 C.3        1 MOL1         0.1003
      89    H42     26.451566   18.839530   21.991436 H          1 MOL1         0.0783
      90    O22     25.497467   17.607375   23.351041 O.3        1 MOL1        -0.5519
      91    H43     24.563243   17.419060   23.616396 H          1 MOL1         0.3769
      92    C27     24.576345   19.748811   22.542017 C.3        1 MOL1         0.1053
      93    H44     23.587165   19.404926   22.872808 H          1 MOL1         0.0783
      94    O23     25.191206   20.524851   23.577376 O.3        1 MOL1        -0.5519
      95    H45     24.534294   21.214008   23.844625 H          1 MOL1         0.3769
      96    C28     24.388128   20.644118   21.288253 C.3        1 MOL1         0.1018
      97    H46     25.313655   21.206139   21.105157 H          1 MOL1         0.0783
      98    C29     24.034943   19.841562   20.007782 C.3        1 MOL1         0.1043
      99    H47     22.996777   19.493561   20.086111 H          1 MOL1         0.0783
     100    O24     24.926613   18.707899   19.872428 O.3        1 MOL1        -0.3740
     101    C30     24.153249   20.686738   18.719731 C.3        1 MOL1         0.0138
     102    H48     23.476934   21.548584   18.791290 H          1 MOL1         0.0794
     103    H49     23.823362   20.078481   17.867000 H          1 MOL1         0.0794
     104    O25     25.497623   21.132779   18.518913 O.3        1 MOL1        -0.5486
     105    H50     26.058513   20.325526   18.543592 H          1 MOL1         0.3769
     106    C31     21.147466   14.058513   21.936408 C.3        1 MOL1         0.2972
     107    H51     20.749821   13.077323   22.225659 H          1 MOL1         0.0751
     108    O26     20.172191   14.834372   21.211163 O.3        1 MOL1        -0.3740
     109    C32     21.598560   14.850486   23.192238 C.3        1 MOL1         0.1003
     110    H52     22.375322   14.254136   23.688417 H          1 MOL1         0.0783
     111    O27     20.513599   15.067868   24.107910 O.3        1 MOL1        -0.5519
     112    H53     19.827047   14.386457   23.911017 H          1 MOL1         0.3769
     113    C33     22.212903   16.209637   22.793130 C.3        1 MOL1         0.1053
     114    H54     21.409722   16.823477   22.372239 H          1 MOL1         0.0783
     115    O28     22.743441   16.840878   23.962426 O.3        1 MOL1        -0.5519
     116    H55     22.085512   16.642315   24.666116 H          1 MOL1         0.3769
     117    C34     23.308871   16.054539   21.711353 C.3        1 MOL1         0.1018
     118    H56     24.213530   15.649845   22.183750 H          1 MOL1         0.0783
     119    C35     22.863135   15.122908   20.548730 C.3        1 MOL1         0.1043
     120    H57     22.103462   15.649451   19.955704 H          1 MOL1         0.0783
     121    O29     22.301673   13.897707   21.084055 O.3        1 MOL1        -0.3740
     122    C36     24.012634   14.734316   19.592155 C.3        1 MOL1         0.0138
     123    H58     24.369744   15.635736   19.076818 H          1 MOL1         0.0794
     124    H59     23.618491   14.055368   18.824138 H          1 MOL1         0.0794
     125    O30     25.088725   14.111801   20.299806 O.3        1 MOL1        -0.5486
     126    H60     24.704652   13.328175   20.752524 H          1 MOL1         0.3769
     127    C1      19.700041   18.515727   20.705116 C.3        1 MOL1        -0.2224
     128    H1      18.699110   18.855901   20.407890 H          1 MOL1         0.1052
     129    H2      20.317147   18.455607   19.799404 H          1 MOL1         0.1052
     130    H3      19.603913   17.501800   21.109670 H          1 MOL1         0.1052
     131    C2      20.333391   19.479848   21.733973 C.3        1 MOL1        -0.1209
     132    H4      20.433494   20.471667   21.273131 H          1 MOL1         0.1041
     133    H5      21.352282   19.152087   21.981661 H          1 MOL1         0.1041
     134    C3      19.493907   19.601730   23.026172 C.3        1 MOL1        -0.1274
     135    H6      19.897085   20.403584   23.656480 H          1 MOL1         0.1041
     136    H7      18.473215   19.898784   22.762610 H          1 MOL1         0.1041
     137    C4      19.463023   18.300085   23.850001 C.3        1 MOL1         0.0313
     138    H8      20.465620   18.081244   24.225050 H          1 MOL1         0.1015
     139    H9      19.142469   17.463172   23.224647 H          1 MOL1         0.1015
     140    N1      18.521835   18.364928   25.035677 N.4        1 MOL1        -0.4809
     141    H10     17.538713   18.479019   24.702896 H          1 MOL1         0.3726
     142    H11     18.713326   19.197489   25.610246 H          1 MOL1         0.3726
     143    C5      18.649209   17.092921   25.860689 C.3        1 MOL1        -0.0677
     144    H12     18.389675   16.237090   25.233189 H          1 MOL1         0.1026
     145    H13     19.677553   16.991632   26.213355 H          1 MOL1         0.1026
     146    H14     17.965686   17.146694   26.710369 H          1 MOL1         0.1026
@<TRIPOS>BOND
    1     1     2    1
    2     1     3    1
    3     1     4    1
    4     4     5    1
    5     4     6    1
    6     6     7    1
    7     4     8    1
    8     8     9    1
    9     8    10    1
   10    10    11    1
   11     8    12    1
   12    12    13    1
   13    12    14    1
   14    14    15    1
   15     1    16    1
   16    14    16    1
   17    14    17    1
   18    17    18    1
   19    17    19    1
   20    17    20    1
   21    20    21    1
   22    22    23    1
   23    22    24    1
   24    22    25    1
   25    25    26    1
   26    25    27    1
   27    27    28    1
   28    25    29    1
   29    29    30    1
   30    29    31    1
   31    31    32    1
   32     3    33    1
   33    29    33    1
   34    33    34    1
   35    33    35    1
   36    35    36    1
   37    22    37    1
   38    35    37    1
   39    35    38    1
   40    38    39    1
   41    38    40    1
   42    38    41    1
   43    41    42    1
   44    43    44    1
   45    43    45    1
   46    43    46    1
   47    46    47    1
   48    46    48    1
   49    48    49    1
   50    46    50    1
   51    50    51    1
   52    50    52    1
   53    52    53    1
   54    24    54    1
   55    50    54    1
   56    54    55    1
   57    54    56    1
   58    56    57    1
   59    43    58    1
   60    56    58    1
   61    56    59    1
   62    59    60    1
   63    59    61    1
   64    59    62    1
   65    62    63    1
   66    64    65    1
   67    64    66    1
   68    64    67    1
   69    67    68    1
   70    67    69    1
   71    69    70    1
   72    67    71    1
   73    71    72    1
   74    71    73    1
   75    73    74    1
   76    45    75    1
   77    71    75    1
   78    75    76    1
   79    75    77    1
   80    77    78    1
   81    64    79    1
   82    77    79    1
   83    77    80    1
   84    80    81    1
   85    80    82    1
   86    80    83    1
   87    83    84    1
   88    85    86    1
   89    85    87    1
   90    85    88    1
   91    88    89    1
   92    88    90    1
   93    90    91    1
   94    88    92    1
   95    92    93    1
   96    92    94    1
   97    94    95    1
   98    66    96    1
   99    92    96    1
  100    96    97    1
  101    96    98    1
  102    98    99    1
  103    85   100    1
  104    98   100    1
  105    98   101    1
  106   101   102    1
  107   101   103    1
  108   101   104    1
  109   104   105    1
  110   106   107    1
  111    12   108    1
  112   106   108    1
  113   106   109    1
  114   109   110    1
  115   109   111    1
  116   111   112    1
  117   109   113    1
  118   113   114    1
  119   113   115    1
  120   115   116    1
  121    87   117    1
  122   113   117    1
  123   117   118    1
  124   117   119    1
  125   119   120    1
  126   106   121    1
  127   119   121    1
  128   119   122    1
  129   122   123    1
  130   122   124    1
  131   122   125    1
  132   125   126    1
  133   127   128    1
  134   127   129    1
  135   127   130    1
  136   127   131    1
  137   131   132    1
  138   131   133    1
  139   131   134    1
  140   134   135    1
  141   134   136    1
  142   134   137    1
  143   137   138    1
  144   137   139    1
  145   137   140    1
  146   140   141    1
  147   140   142    1
  148   140   143    1
  149   143   144    1
  150   143   145    1
  151   143   146    1
@<TRIPOS>SUBSTRUCTURE
       1 MOL1            1 RESIDUE      1      MOL     
       2 MOL1          146 RESIDUE      1      MOL     
@<SCITEGIC>MOL_PROPERTY
VM2 Rank
SciTegic.value.IntegerValue
4

@<SCITEGIC>MOL_PROPERTY
Conf_Id
SciTegic.value.IntegerValue
24787

@<SCITEGIC>MOL_PROPERTY
Probability
SciTegic.value.DoubleValue
1.43

@<SCITEGIC>MOL_PROPERTY
Sum Probability
SciTegic.value.DoubleValue
6.21

@<SCITEGIC>MOL_PROPERTY
Delta G
SciTegic.value.DoubleValue
0.168

@<SCITEGIC>MOL_PROPERTY
G
SciTegic.value.DoubleValue
577.637

@<SCITEGIC>MOL_PROPERTY
E
SciTegic.value.DoubleValue
384.678

@<SCITEGIC>MOL_PROPERTY
-TS
SciTegic.value.DoubleValue
192.959

@<SCITEGIC>MOL_PROPERTY
U+W
SciTegic.value.DoubleValue
255.907

@<SCITEGIC>MOL_PROPERTY
U
SciTegic.value.DoubleValue
334.101

@<SCITEGIC>MOL_PROPERTY
W
SciTegic.value.DoubleValue
-78.193

@<SCITEGIC>MOL_PROPERTY
W(PB)
SciTegic.value.DoubleValue
-84.417

@<SCITEGIC>MOL_PROPERTY
W(SA)
SciTegic.value.DoubleValue
6.223

@<SCITEGIC>MOL_PROPERTY
Valence
SciTegic.value.DoubleValue
143.692

@<SCITEGIC>MOL_PROPERTY
Coulomb
SciTegic.value.DoubleValue
214.180

@<SCITEGIC>MOL_PROPERTY
VdW
SciTegic.value.DoubleValue
-23.771

@<SCITEGIC>MOL_PROPERTY
VdW6
SciTegic.value.DoubleValue
-174.211

@<SCITEGIC>MOL_PROPERTY
VdW12
SciTegic.value.DoubleValue
150.440

@<SCITEGIC>MOL_PROPERTY
Bond
SciTegic.value.DoubleValue
4.440

@<SCITEGIC>MOL_PROPERTY
Angle
SciTegic.value.DoubleValue
10.021

@<SCITEGIC>MOL_PROPERTY
Pdih
SciTegic.value.DoubleValue
129.231

@<SCITEGIC>MOL_PROPERTY
Idih
SciTegic.value.DoubleValue
0.000

@<SCITEGIC>MOL_PROPERTY
Tether
SciTegic.value.DoubleValue
0.000

@<TRIPOS>MOLECULE
CD_guest-s9_vm2_single.mol2 : vm2 host+ligand conformer 5
         146         151           2
SMALL
USER_CHARGES
 
@<TRIPOS>ATOM
       1    C1      16.099540   15.038588   20.516717 C.3        1 MOL1         0.2972
       2    H1      15.039707   14.930326   20.252606 H          1 MOL1         0.0751
       3    O1      16.426957   16.404947   20.849009 O.3        1 MOL1        -0.3740
       4    C2      16.494442   14.100674   21.687675 C.3        1 MOL1         0.1003
       5    H2      16.389906   13.068094   21.328462 H          1 MOL1         0.0783
       6    O2      15.654046   14.282338   22.837949 O.3        1 MOL1        -0.5519
       7    H3      14.776210   13.897823   22.627337 H          1 MOL1         0.3769
       8    C3      17.979320   14.318999   22.065268 C.3        1 MOL1         0.1053
       9    H4      18.082691   15.336119   22.466985 H          1 MOL1         0.0783
      10    O3      18.341012   13.366605   23.071300 O.3        1 MOL1        -0.5519
      11    H5      17.567122   13.339998   23.679268 H          1 MOL1         0.3769
      12    C4      18.911397   14.195076   20.825897 C.3        1 MOL1         0.1018
      13    H6      19.075176   13.133757   20.596444 H          1 MOL1         0.0783
      14    C5      18.348200   14.900929   19.557629 C.3        1 MOL1         0.1043
      15    H7      18.514404   15.980385   19.658517 H          1 MOL1         0.0783
      16    O4      16.927893   14.649282   19.402831 O.3        1 MOL1        -0.3740
      17    C6      19.052279   14.444433   18.260856 C.3        1 MOL1         0.0138
      18    H8      20.128699   14.644376   18.348490 H          1 MOL1         0.0794
      19    H9      18.672018   15.043574   17.422739 H          1 MOL1         0.0794
      20    O5      18.827389   13.052798   18.016742 O.3        1 MOL1        -0.5486
      21    H10     17.851942   12.928923   18.025457 H          1 MOL1         0.3769
      22    C7      15.030641   20.097071   21.964305 C.3        1 MOL1         0.2972
      23    H11     14.457248   20.967252   22.307064 H          1 MOL1         0.0751
      24    O6      16.268555   20.491340   21.335480 O.3        1 MOL1        -0.3740
      25    C8      15.358784   19.171716   23.162249 C.3        1 MOL1         0.1003
      26    H12     14.403665   18.876738   23.615477 H          1 MOL1         0.0783
      27    O7      16.151870   19.871276   24.139777 O.3        1 MOL1        -0.5519
      28    H13     15.941709   20.830979   24.045239 H          1 MOL1         0.3769
      29    C9      16.084902   17.886534   22.691249 C.3        1 MOL1         0.1053
      30    H14     17.093230   18.170863   22.372637 H          1 MOL1         0.0783
      31    O8      16.163060   16.961451   23.781131 O.3        1 MOL1        -0.5519
      32    H15     16.155789   16.050985   23.401777 H          1 MOL1         0.3769
      33    C10     15.405128   17.208758   21.473596 C.3        1 MOL1         0.1018
      34    H16     14.557304   16.605932   21.824868 H          1 MOL1         0.0783
      35    C11     14.931944   18.222671   20.395529 C.3        1 MOL1         0.1043
      36    H17     15.815926   18.586796   19.856078 H          1 MOL1         0.0783
      37    O9      14.252015   19.339759   21.014931 O.3        1 MOL1        -0.3740
      38    C12     13.975239   17.602086   19.353199 C.3        1 MOL1         0.0138
      39    H18     14.515008   16.831249   18.787271 H          1 MOL1         0.0794
      40    H19     13.676136   18.381477   18.639575 H          1 MOL1         0.0794
      41    O10     12.822002   17.034525   19.981218 O.3        1 MOL1        -0.5486
      42    H20     12.397859   17.762287   20.488386 H          1 MOL1         0.3769
      43    C13     18.483359   23.987992   20.836195 C.3        1 MOL1         0.2972
      44    H21     18.838402   24.991584   20.567999 H          1 MOL1         0.0751
      45    O11     19.567620   23.129497   21.241251 O.3        1 MOL1        -0.3740
      46    C14     17.441189   24.050063   21.982998 C.3        1 MOL1         0.1003
      47    H22     16.591684   24.641229   21.616854 H          1 MOL1         0.0783
      48    O12     17.978266   24.685372   23.153405 O.3        1 MOL1        -0.5519
      49    H23     18.805886   24.200882   23.402492 H          1 MOL1         0.3769
      50    C15     16.920868   22.631921   22.325017 C.3        1 MOL1         0.1053
      51    H24     17.758893   22.059837   22.742675 H          1 MOL1         0.0783
      52    O13     15.882002   22.744409   23.304067 O.3        1 MOL1        -0.5519
      53    H25     16.192824   23.443778   23.923140 H          1 MOL1         0.3769
      54    C16     16.415127   21.897332   21.048515 C.3        1 MOL1         0.1018
      55    H26     15.462484   22.335806   20.722344 H          1 MOL1         0.0783
      56    C17     17.431599   21.994289   19.880323 C.3        1 MOL1         0.1043
      57    H27     18.301308   21.366263   20.113192 H          1 MOL1         0.0783
      58    O14     17.836254   23.374197   19.702389 O.3        1 MOL1        -0.3740
      59    C18     16.829864   21.511854   18.544387 C.3        1 MOL1         0.0138
      60    H28     16.012787   22.184187   18.250164 H          1 MOL1         0.0794
      61    H29     16.404934   20.508728   18.677576 H          1 MOL1         0.0794
      62    O15     17.843161   21.479976   17.537697 O.3        1 MOL1        -0.5486
      63    H30     18.255760   22.372233   17.538049 H          1 MOL1         0.3769
      64    C19     23.591160   22.918515   21.953367 C.3        1 MOL1         0.2972
      65    H31     24.662511   23.048905   22.153255 H          1 MOL1         0.0751
      66    O16     23.273336   21.564014   21.565218 O.3        1 MOL1        -0.3740
      67    C20     22.759396   23.283968   23.207586 C.3        1 MOL1         0.1003
      68    H32     22.913873   24.352050   23.409078 H          1 MOL1         0.0783
      69    O17     23.168327   22.523910   24.355357 O.3        1 MOL1        -0.5519
      70    H33     23.732418   21.778638   24.030601 H          1 MOL1         0.3769
      71    C21     21.257948   23.060084   22.928161 C.3        1 MOL1         0.1053
      72    H34     21.114021   21.985361   22.786509 H          1 MOL1         0.0783
      73    O18     20.490115   23.502159   24.050697 O.3        1 MOL1        -0.5519
      74    H35     20.985162   23.174272   24.835319 H          1 MOL1         0.3769
      75    C22     20.790920   23.779039   21.637552 C.3        1 MOL1         0.1018
      76    H36     20.638438   24.842307   21.866487 H          1 MOL1         0.0783
      77    C23     21.787643   23.620700   20.450984 C.3        1 MOL1         0.1043
      78    H37     21.670753   22.609046   20.040652 H          1 MOL1         0.0783
      79    O19     23.156238   23.800809   20.897278 O.3        1 MOL1        -0.3740
      80    C24     21.531504   24.617308   19.298912 C.3        1 MOL1         0.0138
      81    H38     20.544652   24.414557   18.862269 H          1 MOL1         0.0794
      82    H39     22.278022   24.446600   18.511600 H          1 MOL1         0.0794
      83    O20     21.597809   25.969370   19.760949 O.3        1 MOL1        -0.5486
      84    H40     22.491775   26.082827   20.154214 H          1 MOL1         0.3769
      85    C25     24.897500   17.809118   20.925961 C.3        1 MOL1         0.2972
      86    H41     25.531644   16.949084   20.674826 H          1 MOL1         0.0751
      87    O21     23.521154   17.411157   21.102395 O.3        1 MOL1        -0.3740
      88    C26     25.415833   18.528001   22.202376 C.3        1 MOL1         0.1003
      89    H42     26.430353   18.883171   21.979118 H          1 MOL1         0.0783
      90    O22     25.474286   17.648272   23.335151 O.3        1 MOL1        -0.5519
      91    H43     24.543493   17.374636   23.534978 H          1 MOL1         0.3769
      92    C27     24.543682   19.762695   22.529979 C.3        1 MOL1         0.1053
      93    H44     23.546084   19.405494   22.819469 H          1 MOL1         0.0783
      94    O23     25.134137   20.480959   23.616875 O.3        1 MOL1        -0.5519
      95    H45     25.427089   19.789098   24.252297 H          1 MOL1         0.3769
      96    C28     24.389124   20.693048   21.299349 C.3        1 MOL1         0.1018
      97    H46     25.319906   21.255174   21.145734 H          1 MOL1         0.0783
      98    C29     24.051480   19.914186   19.998690 C.3        1 MOL1         0.1043
      99    H47     23.009805   19.572138   20.055624 H          1 MOL1         0.0783
     100    O24     24.934776   18.773475   19.853572 O.3        1 MOL1        -0.3740
     101    C30     24.195402   20.781895   18.728495 C.3        1 MOL1         0.0138
     102    H48     23.525050   21.647837   18.806262 H          1 MOL1         0.0794
     103    H49     23.873535   20.192280   17.859750 H          1 MOL1         0.0794
     104    O25     25.546141   21.220518   18.556238 O.3        1 MOL1        -0.5486
     105    H50     26.100046   20.408233   18.571864 H          1 MOL1         0.3769
     106    C31     21.140369   14.085067   21.840329 C.3        1 MOL1         0.2972
     107    H51     20.750799   13.097485   22.118681 H          1 MOL1         0.0751
     108    O26     20.154739   14.862442   21.129405 O.3        1 MOL1        -0.3740
     109    C32     21.595056   14.862241   23.104771 C.3        1 MOL1         0.1003
     110    H52     22.375148   14.260690   23.589321 H          1 MOL1         0.0783
     111    O27     20.515813   15.067027   24.029854 O.3        1 MOL1        -0.5519
     112    H53     19.833956   14.379827   23.836707 H          1 MOL1         0.3769
     113    C33     22.205723   16.227516   22.721901 C.3        1 MOL1         0.1053
     114    H54     21.399926   16.844313   22.310892 H          1 MOL1         0.0783
     115    O28     22.738603   16.843635   23.898067 O.3        1 MOL1        -0.5519
     116    H55     22.084396   16.630971   24.601375 H          1 MOL1         0.3769
     117    C34     23.299432   16.089100   21.636168 C.3        1 MOL1         0.1018
     118    H56     24.204244   15.675133   22.100382 H          1 MOL1         0.0783
     119    C35     22.848389   15.175465   20.461786 C.3        1 MOL1         0.1043
     120    H57     22.083877   15.708951   19.881505 H          1 MOL1         0.0783
     121    O29     22.292783   13.941413   20.981981 O.3        1 MOL1        -0.3740
     122    C36     23.994131   14.804338   19.493878 C.3        1 MOL1         0.0138
     123    H58     24.346808   15.714662   18.991228 H          1 MOL1         0.0794
     124    H59     23.597845   14.136313   18.717374 H          1 MOL1         0.0794
     125    O30     25.075128   14.173799   20.186940 O.3        1 MOL1        -0.5486
     126    H60     24.695595   13.380445   20.626391 H          1 MOL1         0.3769
     127    C1      19.634060   18.511035   20.688066 C.3        1 MOL1        -0.2224
     128    H1      19.543874   17.497010   21.093487 H          1 MOL1         0.1052
     129    H2      18.627388   18.857118   20.418417 H          1 MOL1         0.1052
     130    H3      20.227321   18.451002   19.766683 H          1 MOL1         0.1052
     131    C2      20.298539   19.469867   21.701589 C.3        1 MOL1        -0.1209
     132    H4      20.386843   20.462005   21.238894 H          1 MOL1         0.1041
     133    H5      21.323544   19.140067   21.918472 H          1 MOL1         0.1041
     134    C3      19.496572   19.589736   23.018180 C.3        1 MOL1        -0.1274
     135    H6      19.925831   20.378502   23.647182 H          1 MOL1         0.1041
     136    H7      18.474333   19.904824   22.784636 H          1 MOL1         0.1041
     137    C4      19.467953   18.281868   23.831863 C.3        1 MOL1         0.0313
     138    H8      20.474421   18.051287   24.188788 H          1 MOL1         0.1015
     139    H9      19.129492   17.452634   23.205832 H          1 MOL1         0.1015
     140    N1      18.546498   18.346255   25.032834 N.4        1 MOL1        -0.4809
     141    H10     17.559873   18.473221   24.715679 H          1 MOL1         0.3726
     142    H11     18.755598   19.172018   25.611112 H          1 MOL1         0.3726
     143    C5      18.673722   17.065815   25.844753 C.3        1 MOL1        -0.0677
     144    H12     18.396633   16.218066   25.213794 H          1 MOL1         0.1026
     145    H13     19.706214   16.951589   26.180979 H          1 MOL1         0.1026
     146    H14     18.003612   17.118643   26.705112 H          1 MOL1         0.1026
@<TRIPOS>BOND
    1     1     2    1
    2     1     3    1
    3     1     4    1
    4     4     5    1
    5     4     6    1
    6     6     7    1
    7     4     8    1
    8     8     9    1
    9     8    10    1
   10    10    11    1
   11     8    12    1
   12    12    13    1
   13    12    14    1
   14    14    15    1
   15     1    16    1
   16    14    16    1
   17    14    17    1
   18    17    18    1
   19    17    19    1
   20    17    20    1
   21    20    21    1
   22    22    23    1
   23    22    24    1
   24    22    25    1
   25    25    26    1
   26    25    27    1
   27    27    28    1
   28    25    29    1
   29    29    30    1
   30    29    31    1
   31    31    32    1
   32     3    33    1
   33    29    33    1
   34    33    34    1
   35    33    35    1
   36    35    36    1
   37    22    37    1
   38    35    37    1
   39    35    38    1
   40    38    39    1
   41    38    40    1
   42    38    41    1
   43    41    42    1
   44    43    44    1
   45    43    45    1
   46    43    46    1
   47    46    47    1
   48    46    48    1
   49    48    49    1
   50    46    50    1
   51    50    51    1
   52    50    52    1
   53    52    53    1
   54    24    54    1
   55    50    54    1
   56    54    55    1
   57    54    56    1
   58    56    57    1
   59    43    58    1
   60    56    58    1
   61    56    59    1
   62    59    60    1
   63    59    61    1
   64    59    62    1
   65    62    63    1
   66    64    65    1
   67    64    66    1
   68    64    67    1
   69    67    68    1
   70    67    69    1
   71    69    70    1
   72    67    71    1
   73    71    72    1
   74    71    73    1
   75    73    74    1
   76    45    75    1
   77    71    75    1
   78    75    76    1
   79    75    77    1
   80    77    78    1
   81    64    79    1
   82    77    79    1
   83    77    80    1
   84    80    81    1
   85    80    82    1
   86    80    83    1
   87    83    84    1
   88    85    86    1
   89    85    87    1
   90    85    88    1
   91    88    89    1
   92    88    90    1
   93    90    91    1
   94    88    92    1
   95    92    93    1
   96    92    94    1
   97    94    95    1
   98    66    96    1
   99    92    96    1
  100    96    97    1
  101    96    98    1
  102    98    99    1
  103    85   100    1
  104    98   100    1
  105    98   101    1
  106   101   102    1
  107   101   103    1
  108   101   104    1
  109   104   105    1
  110   106   107    1
  111    12   108    1
  112   106   108    1
  113   106   109    1
  114   109   110    1
  115   109   111    1
  116   111   112    1
  117   109   113    1
  118   113   114    1
  119   113   115    1
  120   115   116    1
  121    87   117    1
  122   113   117    1
  123   117   118    1
  124   117   119    1
  125   119   120    1
  126   106   121    1
  127   119   121    1
  128   119   122    1
  129   122   123    1
  130   122   124    1
  131   122   125    1
  132   125   126    1
  133   127   128    1
  134   127   129    1
  135   127   130    1
  136   127   131    1
  137   131   132    1
  138   131   133    1
  139   131   134    1
  140   134   135    1
  141   134   136    1
  142   134   137    1
  143   137   138    1
  144   137   139    1
  145   137   140    1
  146   140   141    1
  147   140   142    1
  148   140   143    1
  149   143   144    1
  150   143   145    1
  151   143   146    1
@<TRIPOS>SUBSTRUCTURE
       1 MOL1            1 RESIDUE      1      MOL     
       2 MOL1          146 RESIDUE      1      MOL     
@<SCITEGIC>MOL_PROPERTY
VM2 Rank
SciTegic.value.IntegerValue
5

@<SCITEGIC>MOL_PROPERTY
Conf_Id
SciTegic.value.IntegerValue
4081

@<SCITEGIC>MOL_PROPERTY
Probability
SciTegic.value.DoubleValue
1.30

@<SCITEGIC>MOL_PROPERTY
Sum Probability
SciTegic.value.DoubleValue
7.51

@<SCITEGIC>MOL_PROPERTY
Delta G
SciTegic.value.DoubleValue
0.223

@<SCITEGIC>MOL_PROPERTY
G
SciTegic.value.DoubleValue
577.693

@<SCITEGIC>MOL_PROPERTY
E
SciTegic.value.DoubleValue
384.248

@<SCITEGIC>MOL_PROPERTY
-TS
SciTegic.value.DoubleValue
193.444

@<SCITEGIC>MOL_PROPERTY
U+W
SciTegic.value.DoubleValue
255.477

@<SCITEGIC>MOL_PROPERTY
U
SciTegic.value.DoubleValue
328.542

@<SCITEGIC>MOL_PROPERTY
W
SciTegic.value.DoubleValue
-73.065

@<SCITEGIC>MOL_PROPERTY
W(PB)
SciTegic.value.DoubleValue
-79.290

@<SCITEGIC>MOL_PROPERTY
W(SA)
SciTegic.value.DoubleValue
6.225

@<SCITEGIC>MOL_PROPERTY
Valence
SciTegic.value.DoubleValue
145.263

@<SCITEGIC>MOL_PROPERTY
Coulomb
SciTegic.value.DoubleValue
206.351

@<SCITEGIC>MOL_PROPERTY
VdW
SciTegic.value.DoubleValue
-23.072

@<SCITEGIC>MOL_PROPERTY
VdW6
SciTegic.value.DoubleValue
-175.653

@<SCITEGIC>MOL_PROPERTY
VdW12
SciTegic.value.DoubleValue
152.581

@<SCITEGIC>MOL_PROPERTY
Bond
SciTegic.value.DoubleValue
4.567

@<SCITEGIC>MOL_PROPERTY
Angle
SciTegic.value.DoubleValue
10.394

@<SCITEGIC>MOL_PROPERTY
Pdih
SciTegic.value.DoubleValue
130.302

@<SCITEGIC>MOL_PROPERTY
Idih
SciTegic.value.DoubleValue
0.000

@<SCITEGIC>MOL_PROPERTY
Tether
SciTegic.value.DoubleValue
0.000

@<TRIPOS>MOLECULE
CD_guest-s9_vm2_single.mol2 : vm2 host+ligand conformer 6
         146         151           2
SMALL
USER_CHARGES
 
@<TRIPOS>ATOM
       1    C1      16.196705   15.002088   20.499950 C.3        1 MOL1         0.2972
       2    H1      15.145405   14.887014   20.206305 H          1 MOL1         0.0751
       3    O1      16.510951   16.373722   20.824021 O.3        1 MOL1        -0.3740
       4    C2      16.561065   14.079489   21.692920 C.3        1 MOL1         0.1003
       5    H2      16.465191   13.042630   21.343805 H          1 MOL1         0.0783
       6    O2      15.691787   14.273967   22.819212 O.3        1 MOL1        -0.5519
       7    H3      14.819393   13.887414   22.590452 H          1 MOL1         0.3769
       8    C3      18.036402   14.301954   22.104883 C.3        1 MOL1         0.1053
       9    H4      18.130092   15.322030   22.501519 H          1 MOL1         0.0783
      10    O3      18.375202   13.356157   23.124745 O.3        1 MOL1        -0.5519
      11    H5      17.589482   13.335899   23.717589 H          1 MOL1         0.3769
      12    C4      18.997293   14.168716   20.888763 C.3        1 MOL1         0.1018
      13    H6      19.157229   13.106195   20.661584 H          1 MOL1         0.0783
      14    C5      18.471554   14.875658   19.607222 C.3        1 MOL1         0.1043
      15    H7      18.631371   15.956169   19.706467 H          1 MOL1         0.0783
      16    O4      17.060207   14.600646   19.416672 O.3        1 MOL1        -0.3740
      17    C6      19.218618   14.400036   18.344458 C.3        1 MOL1         0.0138
      18    H8      19.004795   13.336164   18.175077 H          1 MOL1         0.0794
      19    H9      20.300457   14.502657   18.504435 H          1 MOL1         0.0794
      20    O5      18.816330   15.179665   17.216718 O.3        1 MOL1        -0.5486
      21    H10     17.833418   15.149625   17.201170 H          1 MOL1         0.3769
      22    C7      15.093305   20.074192   21.877470 C.3        1 MOL1         0.2972
      23    H11     14.513367   20.947061   22.201973 H          1 MOL1         0.0751
      24    O6      16.341864   20.464584   21.266229 O.3        1 MOL1        -0.3740
      25    C8      15.401028   19.162053   23.090569 C.3        1 MOL1         0.1003
      26    H12     14.438178   18.872273   23.530589 H          1 MOL1         0.0783
      27    O7      16.177423   19.871981   24.074101 O.3        1 MOL1        -0.5519
      28    H13     15.975065   20.831380   23.960388 H          1 MOL1         0.3769
      29    C9      16.133930   17.871489   22.645711 C.3        1 MOL1         0.1053
      30    H14     17.148244   18.152027   22.343188 H          1 MOL1         0.0783
      31    O8      16.190997   16.957840   23.746485 O.3        1 MOL1        -0.5519
      32    H15     16.184037   16.043452   23.376741 H          1 MOL1         0.3769
      33    C10     15.476699   17.181565   21.422076 C.3        1 MOL1         0.1018
      34    H16     14.623318   16.580737   21.763035 H          1 MOL1         0.0783
      35    C11     15.021926   18.185421   20.326671 C.3        1 MOL1         0.1043
      36    H17     15.914256   18.547699   19.799927 H          1 MOL1         0.0783
      37    O9      14.329569   19.305302   20.925557 O.3        1 MOL1        -0.3740
      38    C12     14.084951   17.555517   19.272243 C.3        1 MOL1         0.0138
      39    H18     14.636224   16.782023   18.721311 H          1 MOL1         0.0794
      40    H19     13.797157   18.329749   18.548277 H          1 MOL1         0.0794
      41    O10     12.921950   16.989773   19.883782 O.3        1 MOL1        -0.5486
      42    H20     12.487458   17.720554   20.377669 H          1 MOL1         0.3769
      43    C13     18.550484   23.960068   20.747013 C.3        1 MOL1         0.2972
      44    H21     18.911197   24.960538   20.474811 H          1 MOL1         0.0751
      45    O11     19.628189   23.104692   21.176299 O.3        1 MOL1        -0.3740
      46    C14     17.488050   24.035057   21.874615 C.3        1 MOL1         0.1003
      47    H22     16.641051   24.613740   21.483511 H          1 MOL1         0.0783
      48    O12     17.999535   24.694662   23.042949 O.3        1 MOL1        -0.5519
      49    H23     18.817434   24.211221   23.323875 H          1 MOL1         0.3769
      50    C15     16.971373   22.619357   22.230938 C.3        1 MOL1         0.1053
      51    H24     17.808806   22.055146   22.660622 H          1 MOL1         0.0783
      52    O13     15.925928   22.738271   23.202502 O.3        1 MOL1        -0.5519
      53    H25     16.227170   23.450289   23.811770 H          1 MOL1         0.3769
      54    C16     16.477413   21.868143   20.959990 C.3        1 MOL1         0.1018
      55    H26     15.520744   22.294131   20.629360 H          1 MOL1         0.0783
      56    C17     17.497967   21.963333   19.792630 C.3        1 MOL1         0.1043
      57    H27     18.365655   21.336900   20.037061 H          1 MOL1         0.0783
      58    O14     17.922409   23.337030   19.607807 O.3        1 MOL1        -0.3740
      59    C18     16.922936   21.468231   18.446748 C.3        1 MOL1         0.0138
      60    H28     16.616957   20.419202   18.550335 H          1 MOL1         0.0794
      61    H29     17.716805   21.506194   17.688915 H          1 MOL1         0.0794
      62    O15     15.809464   22.267414   18.037089 O.3        1 MOL1        -0.5486
      63    H30     16.127065   23.197864   18.038675 H          1 MOL1         0.3769
      64    C19     23.623900   22.889704   22.015470 C.3        1 MOL1         0.2972
      65    H31     24.689420   23.013386   22.248297 H          1 MOL1         0.0751
      66    O16     23.309572   21.536983   21.620545 O.3        1 MOL1        -0.3740
      67    C20     22.756694   23.262633   23.242641 C.3        1 MOL1         0.1003
      68    H32     22.911759   24.329983   23.447533 H          1 MOL1         0.0783
      69    O17     23.126380   22.500204   24.402279 O.3        1 MOL1        -0.5519
      70    H33     23.724013   21.772557   24.098673 H          1 MOL1         0.3769
      71    C21     21.263239   23.046299   22.918659 C.3        1 MOL1         0.1053
      72    H34     21.117917   21.971828   22.779262 H          1 MOL1         0.0783
      73    O18     20.465680   23.497962   24.016150 O.3        1 MOL1        -0.5519
      74    H35     20.935414   23.170167   24.816256 H          1 MOL1         0.3769
      75    C22     20.837445   23.758196   21.609659 C.3        1 MOL1         0.1018
      76    H36     20.676670   24.822580   21.827507 H          1 MOL1         0.0783
      77    C23     21.870954   23.594778   20.455369 C.3        1 MOL1         0.1043
      78    H37     21.761969   22.583133   20.042479 H          1 MOL1         0.0783
      79    O19     23.227074   23.769484   20.942470 O.3        1 MOL1        -0.3740
      80    C24     21.653218   24.590511   19.294714 C.3        1 MOL1         0.0138
      81    H38     20.677213   24.393369   18.831687 H          1 MOL1         0.0794
      82    H39     22.419537   24.413123   18.528225 H          1 MOL1         0.0794
      83    O20     21.716098   25.942992   19.756022 O.3        1 MOL1        -0.5486
      84    H40     22.598592   26.050718   20.175902 H          1 MOL1         0.3769
      85    C25     24.959168   17.779195   21.055014 C.3        1 MOL1         0.2972
      86    H41     25.603636   16.922531   20.819169 H          1 MOL1         0.0751
      87    O21     23.585742   17.371013   21.227350 O.3        1 MOL1        -0.3740
      88    C26     25.459861   18.519560   22.326173 C.3        1 MOL1         0.1003
      89    H42     26.475653   18.874846   22.109075 H          1 MOL1         0.0783
      90    O22     25.508264   17.657615   23.472952 O.3        1 MOL1        -0.5519
      91    H43     24.577227   17.377216   23.662200 H          1 MOL1         0.3769
      92    C27     24.579649   19.756177   22.625062 C.3        1 MOL1         0.1053
      93    H44     23.583067   19.399239   22.918530 H          1 MOL1         0.0783
      94    O23     25.162143   20.501116   23.698257 O.3        1 MOL1        -0.5519
      95    H45     25.453926   19.825078   24.351062 H          1 MOL1         0.3769
      96    C28     24.423969   20.659998   21.374579 C.3        1 MOL1         0.1018
      97    H46     25.354413   21.217839   21.203195 H          1 MOL1         0.0783
      98    C29     24.084184   19.854664   20.092999 C.3        1 MOL1         0.1043
      99    H47     23.045671   19.503841   20.155379 H          1 MOL1         0.0783
     100    O24     24.993043   18.731936   19.971593 O.3        1 MOL1        -0.3740
     101    C30     24.230830   20.711877   18.818825 C.3        1 MOL1         0.0138
     102    H48     25.285724   20.987281   18.686177 H          1 MOL1         0.0794
     103    H49     23.656665   21.640110   18.935958 H          1 MOL1         0.0794
     104    O25     23.754436   19.985167   17.684919 O.3        1 MOL1        -0.5486
     105    H50     24.221311   19.119829   17.699023 H          1 MOL1         0.3769
     106    C31     21.205461   14.049501   21.952863 C.3        1 MOL1         0.2972
     107    H51     20.806507   13.065468   22.230490 H          1 MOL1         0.0751
     108    O26     20.237379   14.826967   21.219184 O.3        1 MOL1        -0.3740
     109    C32     21.640303   14.833685   23.219714 C.3        1 MOL1         0.1003
     110    H52     22.411342   14.234454   23.721318 H          1 MOL1         0.0783
     111    O27     20.544998   15.045436   24.124246 O.3        1 MOL1        -0.5519
     112    H53     19.860962   14.364783   23.916197 H          1 MOL1         0.3769
     113    C33     22.258501   16.195941   22.838060 C.3        1 MOL1         0.1053
     114    H54     21.459351   16.811351   22.412114 H          1 MOL1         0.0783
     115    O28     22.775048   16.819475   24.017657 O.3        1 MOL1        -0.5519
     116    H55     22.108867   16.615710   24.712256 H          1 MOL1         0.3769
     117    C34     23.367574   16.052031   21.768678 C.3        1 MOL1         0.1018
     118    H56     24.269012   15.648903   22.248728 H          1 MOL1         0.0783
     119    C35     22.937972   15.126958   20.594801 C.3        1 MOL1         0.1043
     120    H57     22.185073   15.656060   19.995366 H          1 MOL1         0.0783
     121    O29     22.371398   13.897122   21.114606 O.3        1 MOL1        -0.3740
     122    C36     24.101076   14.747523   19.651192 C.3        1 MOL1         0.0138
     123    H58     24.462746   15.653408   19.147006 H          1 MOL1         0.0794
     124    H59     23.719113   14.072793   18.873364 H          1 MOL1         0.0794
     125    O30     25.169246   14.123226   20.369255 O.3        1 MOL1        -0.5486
     126    H60     24.781856   13.334118   20.809472 H          1 MOL1         0.3769
     127    C1      19.731555   18.458113   20.718817 C.3        1 MOL1        -0.2224
     128    H1      18.726379   18.790909   20.428384 H          1 MOL1         0.1052
     129    H2      20.341853   18.391399   19.808726 H          1 MOL1         0.1052
     130    H3      19.644182   17.448439   21.134831 H          1 MOL1         0.1052
     131    C2      20.369942   19.433684   21.732611 C.3        1 MOL1        -0.1209
     132    H4      20.464414   20.419427   21.257599 H          1 MOL1         0.1041
     133    H5      21.391035   19.110176   21.975376 H          1 MOL1         0.1041
     134    C3      19.540874   19.567969   23.030986 C.3        1 MOL1        -0.1274
     135    H6      19.960227   20.360214   23.662281 H          1 MOL1         0.1041
     136    H7      18.524907   19.885316   22.773490 H          1 MOL1         0.1041
     137    C4      19.491171   18.267350   23.855357 C.3        1 MOL1         0.0313
     138    H8      20.489483   18.036178   24.234307 H          1 MOL1         0.1015
     139    H9      19.161971   17.433963   23.229949 H          1 MOL1         0.1015
     140    N1      18.546188   18.345423   25.036949 N.4        1 MOL1        -0.4809
     141    H10     17.566488   18.471058   24.698445 H          1 MOL1         0.3726
     142    H11     18.745342   19.176494   25.611115 H          1 MOL1         0.3726
     143    C5      18.654492   17.072672   25.863614 C.3        1 MOL1        -0.0677
     144    H12     18.388081   16.219367   25.235561 H          1 MOL1         0.1026
     145    H13     19.679878   16.959640   26.221329 H          1 MOL1         0.1026
     146    H14     17.967603   17.135226   26.709974 H          1 MOL1         0.1026
@<TRIPOS>BOND
    1     1     2    1
    2     1     3    1
    3     1     4    1
    4     4     5    1
    5     4     6    1
    6     6     7    1
    7     4     8    1
    8     8     9    1
    9     8    10    1
   10    10    11    1
   11     8    12    1
   12    12    13    1
   13    12    14    1
   14    14    15    1
   15     1    16    1
   16    14    16    1
   17    14    17    1
   18    17    18    1
   19    17    19    1
   20    17    20    1
   21    20    21    1
   22    22    23    1
   23    22    24    1
   24    22    25    1
   25    25    26    1
   26    25    27    1
   27    27    28    1
   28    25    29    1
   29    29    30    1
   30    29    31    1
   31    31    32    1
   32     3    33    1
   33    29    33    1
   34    33    34    1
   35    33    35    1
   36    35    36    1
   37    22    37    1
   38    35    37    1
   39    35    38    1
   40    38    39    1
   41    38    40    1
   42    38    41    1
   43    41    42    1
   44    43    44    1
   45    43    45    1
   46    43    46    1
   47    46    47    1
   48    46    48    1
   49    48    49    1
   50    46    50    1
   51    50    51    1
   52    50    52    1
   53    52    53    1
   54    24    54    1
   55    50    54    1
   56    54    55    1
   57    54    56    1
   58    56    57    1
   59    43    58    1
   60    56    58    1
   61    56    59    1
   62    59    60    1
   63    59    61    1
   64    59    62    1
   65    62    63    1
   66    64    65    1
   67    64    66    1
   68    64    67    1
   69    67    68    1
   70    67    69    1
   71    69    70    1
   72    67    71    1
   73    71    72    1
   74    71    73    1
   75    73    74    1
   76    45    75    1
   77    71    75    1
   78    75    76    1
   79    75    77    1
   80    77    78    1
   81    64    79    1
   82    77    79    1
   83    77    80    1
   84    80    81    1
   85    80    82    1
   86    80    83    1
   87    83    84    1
   88    85    86    1
   89    85    87    1
   90    85    88    1
   91    88    89    1
   92    88    90    1
   93    90    91    1
   94    88    92    1
   95    92    93    1
   96    92    94    1
   97    94    95    1
   98    66    96    1
   99    92    96    1
  100    96    97    1
  101    96    98    1
  102    98    99    1
  103    85   100    1
  104    98   100    1
  105    98   101    1
  106   101   102    1
  107   101   103    1
  108   101   104    1
  109   104   105    1
  110   106   107    1
  111    12   108    1
  112   106   108    1
  113   106   109    1
  114   109   110    1
  115   109   111    1
  116   111   112    1
  117   109   113    1
  118   113   114    1
  119   113   115    1
  120   115   116    1
  121    87   117    1
  122   113   117    1
  123   117   118    1
  124   117   119    1
  125   119   120    1
  126   106   121    1
  127   119   121    1
  128   119   122    1
  129   122   123    1
  130   122   124    1
  131   122   125    1
  132   125   126    1
  133   127   128    1
  134   127   129    1
  135   127   130    1
  136   127   131    1
  137   131   132    1
  138   131   133    1
  139   131   134    1
  140   134   135    1
  141   134   136    1
  142   134   137    1
  143   137   138    1
  144   137   139    1
  145   137   140    1
  146   140   141    1
  147   140   142    1
  148   140   143    1
  149   143   144    1
  150   143   145    1
  151   143   146    1
@<TRIPOS>SUBSTRUCTURE
       1 MOL1            1 RESIDUE      1      MOL     
       2 MOL1          146 RESIDUE      1      MOL     
@<SCITEGIC>MOL_PROPERTY
VM2 Rank
SciTegic.value.IntegerValue
6

@<SCITEGIC>MOL_PROPERTY
Conf_Id
SciTegic.value.IntegerValue
9891

@<SCITEGIC>MOL_PROPERTY
Probability
SciTegic.value.DoubleValue
1.20

@<SCITEGIC>MOL_PROPERTY
Sum Probability
SciTegic.value.DoubleValue
8.71

@<SCITEGIC>MOL_PROPERTY
Delta G
SciTegic.value.DoubleValue
0.273

@<SCITEGIC>MOL_PROPERTY
G
SciTegic.value.DoubleValue
577.742

@<SCITEGIC>MOL_PROPERTY
E
SciTegic.value.DoubleValue
384.459

@<SCITEGIC>MOL_PROPERTY
-TS
SciTegic.value.DoubleValue
193.283

@<SCITEGIC>MOL_PROPERTY
U+W
SciTegic.value.DoubleValue
255.688

@<SCITEGIC>MOL_PROPERTY
U
SciTegic.value.DoubleValue
328.338

@<SCITEGIC>MOL_PROPERTY
W
SciTegic.value.DoubleValue
-72.650

@<SCITEGIC>MOL_PROPERTY
W(PB)
SciTegic.value.DoubleValue
-78.817

@<SCITEGIC>MOL_PROPERTY
W(SA)
SciTegic.value.DoubleValue
6.166

@<SCITEGIC>MOL_PROPERTY
Valence
SciTegic.value.DoubleValue
145.373

@<SCITEGIC>MOL_PROPERTY
Coulomb
SciTegic.value.DoubleValue
206.240

@<SCITEGIC>MOL_PROPERTY
VdW
SciTegic.value.DoubleValue
-23.275

@<SCITEGIC>MOL_PROPERTY
VdW6
SciTegic.value.DoubleValue
-175.160

@<SCITEGIC>MOL_PROPERTY
VdW12
SciTegic.value.DoubleValue
151.885

@<SCITEGIC>MOL_PROPERTY
Bond
SciTegic.value.DoubleValue
4.540

@<SCITEGIC>MOL_PROPERTY
Angle
SciTegic.value.DoubleValue
10.363

@<SCITEGIC>MOL_PROPERTY
Pdih
SciTegic.value.DoubleValue
130.469

@<SCITEGIC>MOL_PROPERTY
Idih
SciTegic.value.DoubleValue
0.000

@<SCITEGIC>MOL_PROPERTY
Tether
SciTegic.value.DoubleValue
0.000

@<TRIPOS>MOLECULE
CD_guest-s9_vm2_single.mol2 : vm2 host+ligand conformer 7
         146         151           2
SMALL
USER_CHARGES
 
@<TRIPOS>ATOM
       1    C1      16.149423   14.987795   20.544196 C.3        1 MOL1         0.2972
       2    H1      15.094344   14.872292   20.264614 H          1 MOL1         0.0751
       3    O1      16.468287   16.360177   20.860551 O.3        1 MOL1        -0.3740
       4    C2      16.528792   14.068668   21.735053 C.3        1 MOL1         0.1003
       5    H2      16.427528   13.030802   21.390479 H          1 MOL1         0.0783
       6    O2      15.674613   14.267462   22.872116 O.3        1 MOL1        -0.5519
       7    H3      14.798857   13.881237   22.656011 H          1 MOL1         0.3769
       8    C3      18.009526   14.291246   22.127054 C.3        1 MOL1         0.1053
       9    H4      18.108872   15.312309   22.519770 H          1 MOL1         0.0783
      10    O3      18.360106   13.347725   23.145069 O.3        1 MOL1        -0.5519
      11    H5      17.581418   13.329186   23.747205 H          1 MOL1         0.3769
      12    C4      18.954802   14.154101   20.898959 C.3        1 MOL1         0.1018
      13    H6      19.111363   13.090823   20.672994 H          1 MOL1         0.0783
      14    C5      18.412389   14.857260   19.622249 C.3        1 MOL1         0.1043
      15    H7      18.573798   15.937923   19.716118 H          1 MOL1         0.0783
      16    O4      16.998554   14.582643   19.450956 O.3        1 MOL1        -0.3740
      17    C6      19.142774   14.377972   18.351149 C.3        1 MOL1         0.0138
      18    H8      18.923880   13.314524   18.185619 H          1 MOL1         0.0794
      19    H9      20.226755   14.477634   18.497981 H          1 MOL1         0.0794
      20    O5      18.729330   15.157640   17.227442 O.3        1 MOL1        -0.5486
      21    H10     17.746263   15.128960   17.222466 H          1 MOL1         0.3769
      22    C7      15.066727   20.065281   21.914901 C.3        1 MOL1         0.2972
      23    H11     14.492973   20.941287   22.242000 H          1 MOL1         0.0751
      24    O6      16.308921   20.449288   21.286828 O.3        1 MOL1        -0.3740
      25    C8      15.386401   19.158170   23.128620 C.3        1 MOL1         0.1003
      26    H12     14.428028   18.871465   23.580274 H          1 MOL1         0.0783
      27    O7      16.174002   19.871722   24.100543 O.3        1 MOL1        -0.5519
      28    H13     15.974326   20.831152   23.982253 H          1 MOL1         0.3769
      29    C9      16.112862   17.864760   22.681220 C.3        1 MOL1         0.1053
      30    H14     17.123960   18.142880   22.366216 H          1 MOL1         0.0783
      31    O8      16.181706   16.955620   23.785068 O.3        1 MOL1        -0.5519
      32    H15     16.172794   16.039753   23.419030 H          1 MOL1         0.3769
      33    C10     15.441152   17.170261   21.467943 C.3        1 MOL1         0.1018
      34    H16     14.592070   16.570606   21.821469 H          1 MOL1         0.0783
      35    C11     14.972961   18.169550   20.373901 C.3        1 MOL1         0.1043
      36    H17     15.858694   18.528101   19.833696 H          1 MOL1         0.0783
      37    O9      14.289915   19.293374   20.976153 O.3        1 MOL1        -0.3740
      38    C12     14.021518   17.535832   19.334831 C.3        1 MOL1         0.0138
      39    H18     14.564610   16.759105   18.780341 H          1 MOL1         0.0794
      40    H19     13.725135   18.307011   18.611071 H          1 MOL1         0.0794
      41    O10     12.865987   16.974395   19.964223 O.3        1 MOL1        -0.5486
      42    H20     12.438771   17.708037   20.460216 H          1 MOL1         0.3769
      43    C13     18.521112   23.933664   20.715646 C.3        1 MOL1         0.2972
      44    H21     18.881209   24.931319   20.432494 H          1 MOL1         0.0751
      45    O11     19.602718   23.077046   21.133260 O.3        1 MOL1        -0.3740
      46    C14     17.474589   24.019090   21.857514 C.3        1 MOL1         0.1003
      47    H22     16.624246   24.598256   21.474467 H          1 MOL1         0.0783
      48    O12     18.003835   24.684102   23.014761 O.3        1 MOL1        -0.5519
      49    H23     18.820255   24.195664   23.291282 H          1 MOL1         0.3769
      50    C15     16.958049   22.607436   22.229436 C.3        1 MOL1         0.1053
      51    H24     17.799642   22.043140   22.650644 H          1 MOL1         0.0783
      52    O13     15.926553   22.735119   23.214709 O.3        1 MOL1        -0.5519
      53    H25     16.238429   23.449412   23.815887 H          1 MOL1         0.3769
      54    C16     16.443690   21.850546   20.970118 C.3        1 MOL1         0.1018
      55    H26     15.483486   22.277328   20.650954 H          1 MOL1         0.0783
      56    C17     17.447336   21.935816   19.787476 C.3        1 MOL1         0.1043
      57    H27     18.316025   21.307284   20.022574 H          1 MOL1         0.0783
      58    O14     17.874565   23.306716   19.588993 O.3        1 MOL1        -0.3740
      59    C18     16.850603   21.435962   18.452833 C.3        1 MOL1         0.0138
      60    H28     16.541967   20.388768   18.566454 H          1 MOL1         0.0794
      61    H29     17.633324   21.466731   17.683194 H          1 MOL1         0.0794
      62    O15     15.734434   22.237476   18.055297 O.3        1 MOL1        -0.5486
      63    H30     16.055729   23.166626   18.047086 H          1 MOL1         0.3769
      64    C19     23.609059   22.869868   21.938933 C.3        1 MOL1         0.2972
      65    H31     24.675925   22.999966   22.161805 H          1 MOL1         0.0751
      66    O16     23.299179   21.514362   21.547245 O.3        1 MOL1        -0.3740
      67    C20     22.750083   23.241043   23.172979 C.3        1 MOL1         0.1003
      68    H32     22.901796   24.309657   23.373774 H          1 MOL1         0.0783
      69    O17     23.130890   22.484788   24.332918 O.3        1 MOL1        -0.5519
      70    H33     23.726834   21.756226   24.028062 H          1 MOL1         0.3769
      71    C21     21.255046   23.017993   22.861319 C.3        1 MOL1         0.1053
      72    H34     21.114266   21.943166   22.721037 H          1 MOL1         0.0783
      73    O18     20.464727   23.463993   23.966366 O.3        1 MOL1        -0.5519
      74    H35     20.945049   23.140045   24.761790 H          1 MOL1         0.3769
      75    C22     20.815619   23.730412   21.557206 C.3        1 MOL1         0.1018
      76    H36     20.656195   24.794460   21.777655 H          1 MOL1         0.0783
      77    C23     21.839870   23.569363   20.394596 C.3        1 MOL1         0.1043
      78    H37     21.732223   22.556873   19.983921 H          1 MOL1         0.0783
      79    O19     23.198272   23.749714   20.871147 O.3        1 MOL1        -0.3740
      80    C24     21.609898   24.563526   19.234913 C.3        1 MOL1         0.0138
      81    H38     20.632170   24.361127   18.777850 H          1 MOL1         0.0794
      82    H39     22.372819   24.389864   18.464141 H          1 MOL1         0.0794
      83    O20     21.668419   25.916587   19.695109 O.3        1 MOL1        -0.5486
      84    H40     22.553774   26.029472   20.107584 H          1 MOL1         0.3769
      85    C25     24.939593   17.750336   21.007322 C.3        1 MOL1         0.2972
      86    H41     25.577758   16.886429   20.780856 H          1 MOL1         0.0751
      87    O21     23.562544   17.353616   21.180064 O.3        1 MOL1        -0.3740
      88    C26     25.444040   18.497632   22.272691 C.3        1 MOL1         0.1003
      89    H42     26.460198   18.849584   22.051792 H          1 MOL1         0.0783
      90    O22     25.492565   17.642110   23.424340 O.3        1 MOL1        -0.5519
      91    H43     24.560904   17.367043   23.618189 H          1 MOL1         0.3769
      92    C27     24.567020   19.737830   22.565418 C.3        1 MOL1         0.1053
      93    H44     23.567790   19.385144   22.854899 H          1 MOL1         0.0783
      94    O23     25.148122   20.480454   23.640963 O.3        1 MOL1        -0.5519
      95    H45     25.438869   19.802739   24.292528 H          1 MOL1         0.3769
      96    C28     24.420378   20.640780   21.313166 C.3        1 MOL1         0.1018
      97    H46     25.350402   21.202989   21.155249 H          1 MOL1         0.0783
      98    C29     24.097617   19.832452   20.026747 C.3        1 MOL1         0.1043
      99    H47     23.056375   19.488694   20.081106 H          1 MOL1         0.0783
     100    O24     24.985199   18.691426   19.914900 O.3        1 MOL1        -0.3740
     101    C30     24.251392   20.672557   18.739262 C.3        1 MOL1         0.0138
     102    H48     23.578299   21.538265   18.791891 H          1 MOL1         0.0794
     103    H49     23.939113   20.063228   17.880681 H          1 MOL1         0.0794
     104    O25     25.602603   21.110835   18.569939 O.3        1 MOL1        -0.5486
     105    H50     26.158315   20.300566   18.608977 H          1 MOL1         0.3769
     106    C31     21.173837   14.040962   21.942098 C.3        1 MOL1         0.2972
     107    H51     20.777320   13.058722   22.229339 H          1 MOL1         0.0751
     108    O26     20.199991   14.812780   21.209961 O.3        1 MOL1        -0.3740
     109    C32     21.618071   14.833988   23.200339 C.3        1 MOL1         0.1003
     110    H52     22.392160   14.237604   23.700649 H          1 MOL1         0.0783
     111    O27     20.529777   15.053177   24.111470 O.3        1 MOL1        -0.5519
     112    H53     19.847714   14.365936   23.919429 H          1 MOL1         0.3769
     113    C33     22.234836   16.193007   22.805004 C.3        1 MOL1         0.1053
     114    H54     21.433915   16.805735   22.378780 H          1 MOL1         0.0783
     115    O28     22.758156   16.824211   23.977427 O.3        1 MOL1        -0.5519
     116    H55     22.096894   16.623158   24.677524 H          1 MOL1         0.3769
     117    C34     23.337961   16.039107   21.730947 C.3        1 MOL1         0.1018
     118    H56     24.239209   15.633370   22.209220 H          1 MOL1         0.0783
     119    C35     22.898118   15.108571   20.565300 C.3        1 MOL1         0.1043
     120    H57     22.141617   15.635474   19.968518 H          1 MOL1         0.0783
     121    O29     22.333562   13.882587   21.096267 O.3        1 MOL1        -0.3740
     122    C36     24.054016   14.721813   19.615767 C.3        1 MOL1         0.0138
     123    H58     24.414692   15.624462   19.105006 H          1 MOL1         0.0794
     124    H59     23.665284   14.044386   18.843657 H          1 MOL1         0.0794
     125    O30     25.125306   14.098202   20.329810 O.3        1 MOL1        -0.5486
     126    H60     24.738784   13.312155   20.776238 H          1 MOL1         0.3769
     127    C1      19.671011   18.431046   20.714779 C.3        1 MOL1        -0.2224
     128    H1      19.585511   17.426133   21.142557 H          1 MOL1         0.1052
     129    H2      18.662650   18.765202   20.437142 H          1 MOL1         0.1052
     130    H3      20.266056   18.351851   19.795907 H          1 MOL1         0.1052
     131    C2      20.329165   19.413811   21.708869 C.3        1 MOL1        -0.1209
     132    H4      20.415519   20.395678   21.224608 H          1 MOL1         0.1041
     133    H5      21.354453   19.091765   21.935955 H          1 MOL1         0.1041
     134    C3      19.522870   19.559331   23.020434 C.3        1 MOL1        -0.1274
     135    H6      19.954440   20.354817   23.639264 H          1 MOL1         0.1041
     136    H7      18.503649   19.877553   22.777697 H          1 MOL1         0.1041
     137    C4      19.482683   18.264822   23.854856 C.3        1 MOL1         0.0313
     138    H8      20.485370   18.035795   24.223279 H          1 MOL1         0.1015
     139    H9      19.145354   17.427002   23.239828 H          1 MOL1         0.1015
     140    N1      18.551904   18.352051   25.047008 N.4        1 MOL1        -0.4809
     141    H10     17.568655   18.477965   24.719127 H          1 MOL1         0.3726
     142    H11     18.759672   19.186051   25.613838 H          1 MOL1         0.3726
     143    C5      18.667000   17.083904   25.879784 C.3        1 MOL1        -0.0677
     144    H12     19.696181   16.970768   26.226382 H          1 MOL1         0.1026
     145    H13     17.990000   17.152847   26.733583 H          1 MOL1         0.1026
     146    H14     18.391636   16.227563   25.259765 H          1 MOL1         0.1026
@<TRIPOS>BOND
    1     1     2    1
    2     1     3    1
    3     1     4    1
    4     4     5    1
    5     4     6    1
    6     6     7    1
    7     4     8    1
    8     8     9    1
    9     8    10    1
   10    10    11    1
   11     8    12    1
   12    12    13    1
   13    12    14    1
   14    14    15    1
   15     1    16    1
   16    14    16    1
   17    14    17    1
   18    17    18    1
   19    17    19    1
   20    17    20    1
   21    20    21    1
   22    22    23    1
   23    22    24    1
   24    22    25    1
   25    25    26    1
   26    25    27    1
   27    27    28    1
   28    25    29    1
   29    29    30    1
   30    29    31    1
   31    31    32    1
   32     3    33    1
   33    29    33    1
   34    33    34    1
   35    33    35    1
   36    35    36    1
   37    22    37    1
   38    35    37    1
   39    35    38    1
   40    38    39    1
   41    38    40    1
   42    38    41    1
   43    41    42    1
   44    43    44    1
   45    43    45    1
   46    43    46    1
   47    46    47    1
   48    46    48    1
   49    48    49    1
   50    46    50    1
   51    50    51    1
   52    50    52    1
   53    52    53    1
   54    24    54    1
   55    50    54    1
   56    54    55    1
   57    54    56    1
   58    56    57    1
   59    43    58    1
   60    56    58    1
   61    56    59    1
   62    59    60    1
   63    59    61    1
   64    59    62    1
   65    62    63    1
   66    64    65    1
   67    64    66    1
   68    64    67    1
   69    67    68    1
   70    67    69    1
   71    69    70    1
   72    67    71    1
   73    71    72    1
   74    71    73    1
   75    73    74    1
   76    45    75    1
   77    71    75    1
   78    75    76    1
   79    75    77    1
   80    77    78    1
   81    64    79    1
   82    77    79    1
   83    77    80    1
   84    80    81    1
   85    80    82    1
   86    80    83    1
   87    83    84    1
   88    85    86    1
   89    85    87    1
   90    85    88    1
   91    88    89    1
   92    88    90    1
   93    90    91    1
   94    88    92    1
   95    92    93    1
   96    92    94    1
   97    94    95    1
   98    66    96    1
   99    92    96    1
  100    96    97    1
  101    96    98    1
  102    98    99    1
  103    85   100    1
  104    98   100    1
  105    98   101    1
  106   101   102    1
  107   101   103    1
  108   101   104    1
  109   104   105    1
  110   106   107    1
  111    12   108    1
  112   106   108    1
  113   106   109    1
  114   109   110    1
  115   109   111    1
  116   111   112    1
  117   109   113    1
  118   113   114    1
  119   113   115    1
  120   115   116    1
  121    87   117    1
  122   113   117    1
  123   117   118    1
  124   117   119    1
  125   119   120    1
  126   106   121    1
  127   119   121    1
  128   119   122    1
  129   122   123    1
  130   122   124    1
  131   122   125    1
  132   125   126    1
  133   127   128    1
  134   127   129    1
  135   127   130    1
  136   127   131    1
  137   131   132    1
  138   131   133    1
  139   131   134    1
  140   134   135    1
  141   134   136    1
  142   134   137    1
  143   137   138    1
  144   137   139    1
  145   137   140    1
  146   140   141    1
  147   140   142    1
  148   140   143    1
  149   143   144    1
  150   143   145    1
  151   143   146    1
@<TRIPOS>SUBSTRUCTURE
       1 MOL1            1 RESIDUE      1      MOL     
       2 MOL1          146 RESIDUE      1      MOL     
@<SCITEGIC>MOL_PROPERTY
VM2 Rank
SciTegic.value.IntegerValue
7

@<SCITEGIC>MOL_PROPERTY
Conf_Id
SciTegic.value.IntegerValue
23991

@<SCITEGIC>MOL_PROPERTY
Probability
SciTegic.value.DoubleValue
1.06

@<SCITEGIC>MOL_PROPERTY
Sum Probability
SciTegic.value.DoubleValue
9.77

@<SCITEGIC>MOL_PROPERTY
Delta G
SciTegic.value.DoubleValue
0.347

@<SCITEGIC>MOL_PROPERTY
G
SciTegic.value.DoubleValue
577.817

@<SCITEGIC>MOL_PROPERTY
E
SciTegic.value.DoubleValue
384.285

@<SCITEGIC>MOL_PROPERTY
-TS
SciTegic.value.DoubleValue
193.532

@<SCITEGIC>MOL_PROPERTY
U+W
SciTegic.value.DoubleValue
255.514

@<SCITEGIC>MOL_PROPERTY
U
SciTegic.value.DoubleValue
329.149

@<SCITEGIC>MOL_PROPERTY
W
SciTegic.value.DoubleValue
-73.635

@<SCITEGIC>MOL_PROPERTY
W(PB)
SciTegic.value.DoubleValue
-79.824

@<SCITEGIC>MOL_PROPERTY
W(SA)
SciTegic.value.DoubleValue
6.190

@<SCITEGIC>MOL_PROPERTY
Valence
SciTegic.value.DoubleValue
145.292

@<SCITEGIC>MOL_PROPERTY
Coulomb
SciTegic.value.DoubleValue
206.742

@<SCITEGIC>MOL_PROPERTY
VdW
SciTegic.value.DoubleValue
-22.886

@<SCITEGIC>MOL_PROPERTY
VdW6
SciTegic.value.DoubleValue
-175.659

@<SCITEGIC>MOL_PROPERTY
VdW12
SciTegic.value.DoubleValue
152.773

@<SCITEGIC>MOL_PROPERTY
Bond
SciTegic.value.DoubleValue
4.591

@<SCITEGIC>MOL_PROPERTY
Angle
SciTegic.value.DoubleValue
10.442

@<SCITEGIC>MOL_PROPERTY
Pdih
SciTegic.value.DoubleValue
130.260

@<SCITEGIC>MOL_PROPERTY
Idih
SciTegic.value.DoubleValue
0.000

@<SCITEGIC>MOL_PROPERTY
Tether
SciTegic.value.DoubleValue
0.000

@<TRIPOS>MOLECULE
CD_guest-s9_vm2_single.mol2 : vm2 host+ligand conformer 8
         146         151           2
SMALL
USER_CHARGES
 
@<TRIPOS>ATOM
       1    C1      16.172831   15.008493   20.486915 C.3        1 MOL1         0.2972
       2    H1      15.122896   14.889911   20.189806 H          1 MOL1         0.0751
       3    O1      16.480233   16.379963   20.817444 O.3        1 MOL1        -0.3740
       4    C2      16.538376   14.082481   21.677006 C.3        1 MOL1         0.1003
       5    H2      16.450159   13.046631   21.322921 H          1 MOL1         0.0783
       6    O2      15.664033   14.266436   22.801157 O.3        1 MOL1        -0.5519
       7    H3      14.795151   13.874644   22.567964 H          1 MOL1         0.3769
       8    C3      18.010981   14.312620   22.094290 C.3        1 MOL1         0.1053
       9    H4      18.098298   15.332552   22.492700 H          1 MOL1         0.0783
      10    O3      18.353264   13.367664   23.113777 O.3        1 MOL1        -0.5519
      11    H5      17.566686   13.342294   23.705241 H          1 MOL1         0.3769
      12    C4      18.974862   14.187280   20.880021 C.3        1 MOL1         0.1018
      13    H6      19.138966   13.126280   20.648688 H          1 MOL1         0.0783
      14    C5      18.450821   14.898454   19.600438 C.3        1 MOL1         0.1043
      15    H7      18.605998   15.979460   19.706049 H          1 MOL1         0.0783
      16    O4      17.041438   14.616839   19.404172 O.3        1 MOL1        -0.3740
      17    C6      19.204182   14.430867   18.338314 C.3        1 MOL1         0.0138
      18    H8      18.997375   13.366127   18.165742 H          1 MOL1         0.0794
      19    H9      20.284938   14.539658   18.501331 H          1 MOL1         0.0794
      20    O5      18.800089   15.210386   17.211253 O.3        1 MOL1        -0.5486
      21    H10     17.817234   15.178506   17.195956 H          1 MOL1         0.3769
      22    C7      15.031368   20.063440   21.904428 C.3        1 MOL1         0.2972
      23    H11     14.439699   20.925266   22.236751 H          1 MOL1         0.0751
      24    O6      16.274114   20.475011   21.296580 O.3        1 MOL1        -0.3740
      25    C8      15.352735   19.141761   23.107609 C.3        1 MOL1         0.1003
      26    H12     14.394557   18.835904   23.546951 H          1 MOL1         0.0783
      27    O7      16.124344   19.848431   24.096876 O.3        1 MOL1        -0.5519
      28    H13     15.890386   20.803389   24.012150 H          1 MOL1         0.3769
      29    C9      16.100530   17.865271   22.648218 C.3        1 MOL1         0.1053
      30    H14     17.110100   18.161179   22.342914 H          1 MOL1         0.0783
      31    O8      16.174263   16.943339   23.741080 O.3        1 MOL1        -0.5519
      32    H15     16.160187   16.031793   23.364726 H          1 MOL1         0.3769
      33    C10     15.443936   17.178911   21.422739 C.3        1 MOL1         0.1018
      34    H16     14.593944   16.572234   21.761792 H          1 MOL1         0.0783
      35    C11     14.982942   18.187661   20.334854 C.3        1 MOL1         0.1043
      36    H17     15.873726   18.561600   19.813250 H          1 MOL1         0.0783
      37    O9      14.278937   19.296603   20.941531 O.3        1 MOL1        -0.3740
      38    C12     14.053702   17.557298   19.273693 C.3        1 MOL1         0.0138
      39    H18     14.612925   16.792612   18.718448 H          1 MOL1         0.0794
      40    H19     13.760465   18.333739   18.554446 H          1 MOL1         0.0794
      41    O10     12.894416   16.976945   19.878525 O.3        1 MOL1        -0.5486
      42    H20     12.452570   17.699783   20.377533 H          1 MOL1         0.3769
      43    C13     18.481240   23.994458   20.934204 C.3        1 MOL1         0.2972
      44    H21     18.835035   25.004997   20.692190 H          1 MOL1         0.0751
      45    O11     19.557630   23.143842   21.375057 O.3        1 MOL1        -0.3740
      46    C14     17.401206   24.032329   22.047587 C.3        1 MOL1         0.1003
      47    H22     16.561437   24.631817   21.671835 H          1 MOL1         0.0783
      48    O12     17.907910   24.625043   23.255968 O.3        1 MOL1        -0.5519
      49    H23     18.010663   25.586934   23.092791 H          1 MOL1         0.3769
      50    C15     16.874595   22.606377   22.342718 C.3        1 MOL1         0.1053
      51    H24     17.699090   22.031926   22.783003 H          1 MOL1         0.0783
      52    O13     15.801921   22.702825   23.286166 O.3        1 MOL1        -0.5519
      53    H25     16.112589   23.362179   23.947836 H          1 MOL1         0.3769
      54    C16     16.421466   21.886843   21.038380 C.3        1 MOL1         0.1018
      55    H26     15.478900   22.323965   20.682643 H          1 MOL1         0.0783
      56    C17     17.482212   22.006562   19.912696 C.3        1 MOL1         0.1043
      57    H27     18.347733   21.382609   20.171164 H          1 MOL1         0.0783
      58    O14     17.881728   23.391385   19.769266 O.3        1 MOL1        -0.3740
      59    C18     16.936118   21.537321   18.548446 C.3        1 MOL1         0.0138
      60    H28     16.115441   22.198261   18.238886 H          1 MOL1         0.0794
      61    H29     16.528261   20.523174   18.649232 H          1 MOL1         0.0794
      62    O15     17.982733   21.545583   17.576121 O.3        1 MOL1        -0.5486
      63    H30     18.375021   22.446175   17.605992 H          1 MOL1         0.3769
      64    C19     23.611932   22.916024   21.912686 C.3        1 MOL1         0.2972
      65    H31     24.689565   23.058374   22.063289 H          1 MOL1         0.0751
      66    O16     23.285150   21.539911   21.622856 O.3        1 MOL1        -0.3740
      67    C20     22.836021   23.362534   23.175130 C.3        1 MOL1         0.1003
      68    H32     23.017825   24.436392   23.313242 H          1 MOL1         0.0783
      69    O17     23.278608   22.653981   24.340238 O.3        1 MOL1        -0.5519
      70    H33     22.619407   22.882723   25.033829 H          1 MOL1         0.3769
      71    C21     21.319259   23.155202   22.978294 C.3        1 MOL1         0.1053
      72    H34     21.138857   22.076495   22.925654 H          1 MOL1         0.0783
      73    O18     20.608920   23.712289   24.090562 O.3        1 MOL1        -0.5519
      74    H35     19.658314   23.769997   23.827045 H          1 MOL1         0.3769
      75    C22     20.812942   23.789884   21.659125 C.3        1 MOL1         0.1018
      76    H36     20.695214   24.870212   21.817071 H          1 MOL1         0.0783
      77    C23     21.749950   23.524918   20.443965 C.3        1 MOL1         0.1043
      78    H37     21.605084   22.486120   20.118953 H          1 MOL1         0.0783
      79    O19     23.138059   23.724782   20.815300 O.3        1 MOL1        -0.3740
      80    C24     21.450884   24.433625   19.231031 C.3        1 MOL1         0.0138
      81    H38     20.443871   24.210174   18.855050 H          1 MOL1         0.0794
      82    H39     22.159364   24.194241   18.426679 H          1 MOL1         0.0794
      83    O20     21.549285   25.816209   19.584681 O.3        1 MOL1        -0.5486
      84    H40     22.460938   25.948951   19.928059 H          1 MOL1         0.3769
      85    C25     24.926065   17.792409   21.013107 C.3        1 MOL1         0.2972
      86    H41     25.563310   16.934770   20.762025 H          1 MOL1         0.0751
      87    O21     23.554395   17.386332   21.206632 O.3        1 MOL1        -0.3740
      88    C26     25.452681   18.520657   22.281476 C.3        1 MOL1         0.1003
      89    H42     26.468924   18.866866   22.053710 H          1 MOL1         0.0783
      90    O22     25.511969   17.627588   23.404678 O.3        1 MOL1        -0.5519
      91    H43     24.577139   17.430313   23.661378 H          1 MOL1         0.3769
      92    C27     24.589672   19.770253   22.600935 C.3        1 MOL1         0.1053
      93    H44     23.602817   19.422486   22.934772 H          1 MOL1         0.0783
      94    O23     25.204187   20.550154   23.633559 O.3        1 MOL1        -0.5519
      95    H45     24.540079   21.228439   23.910872 H          1 MOL1         0.3769
      96    C28     24.394212   20.664291   21.347227 C.3        1 MOL1         0.1018
      97    H46     25.319448   21.222824   21.151365 H          1 MOL1         0.0783
      98    C29     24.028177   19.861958   20.072440 C.3        1 MOL1         0.1043
      99    H47     22.992827   19.506653   20.155872 H          1 MOL1         0.0783
     100    O24     24.941558   18.746756   19.931710 O.3        1 MOL1        -0.3740
     101    C30     24.143680   20.721733   18.796752 C.3        1 MOL1         0.0138
     102    H48     25.192460   21.011934   18.648258 H          1 MOL1         0.0794
     103    H49     23.558037   21.641555   18.922803 H          1 MOL1         0.0794
     104    O25     23.660766   19.988645   17.669837 O.3        1 MOL1        -0.5486
     105    H50     24.136493   19.128122   17.679700 H          1 MOL1         0.3769
     106    C31     21.180351   14.067158   21.944559 C.3        1 MOL1         0.2972
     107    H51     20.780522   13.083886   22.223601 H          1 MOL1         0.0751
     108    O26     20.210706   14.848327   21.217462 O.3        1 MOL1        -0.3740
     109    C32     21.621417   14.849861   23.209621 C.3        1 MOL1         0.1003
     110    H52     22.394952   14.250469   23.707162 H          1 MOL1         0.0783
     111    O27     20.529210   15.059409   24.118501 O.3        1 MOL1        -0.5519
     112    H53     19.841452   14.383796   23.906242 H          1 MOL1         0.3769
     113    C33     22.237462   16.212438   22.825198 C.3        1 MOL1         0.1053
     114    H54     21.436449   16.828936   22.403813 H          1 MOL1         0.0783
     115    O28     22.759874   16.835669   24.002486 O.3        1 MOL1        -0.5519
     116    H55     22.096569   16.633402   24.700034 H          1 MOL1         0.3769
     117    C34     23.340603   16.067607   21.749285 C.3        1 MOL1         0.1018
     118    H56     24.244731   15.664754   22.224230 H          1 MOL1         0.0783
     119    C35     22.905511   15.142417   20.577424 C.3        1 MOL1         0.1043
     120    H57     22.149859   15.671757   19.981699 H          1 MOL1         0.0783
     121    O29     22.341364   13.913032   21.100289 O.3        1 MOL1        -0.3740
     122    C36     24.062853   14.761689   19.627228 C.3        1 MOL1         0.0138
     123    H58     24.421675   15.666733   19.119584 H          1 MOL1         0.0794
     124    H59     23.675835   14.086256   18.852517 H          1 MOL1         0.0794
     125    O30     25.135120   14.137536   20.339196 O.3        1 MOL1        -0.5486
     126    H60     24.749546   13.350496   20.784641 H          1 MOL1         0.3769
     127    C1      19.756070   18.537650   20.708949 C.3        1 MOL1        -0.2224
     128    H1      18.757661   18.875172   20.400520 H          1 MOL1         0.1052
     129    H2      20.386373   18.489253   19.811333 H          1 MOL1         0.1052
     130    H3      19.660461   17.519756   21.103417 H          1 MOL1         0.1052
     131    C2      20.370147   19.496499   21.754080 C.3        1 MOL1        -0.1209
     132    H4      20.474664   20.491411   21.300759 H          1 MOL1         0.1041
     133    H5      21.385851   19.169386   22.014904 H          1 MOL1         0.1041
     134    C3      19.511628   19.607696   23.034635 C.3        1 MOL1        -0.1274
     135    H6      19.903912   20.406301   23.675824 H          1 MOL1         0.1041
     136    H7      18.494034   19.904188   22.758567 H          1 MOL1         0.1041
     137    C4      19.473175   18.300610   23.849490 C.3        1 MOL1         0.0313
     138    H8      20.472114   18.079903   24.233201 H          1 MOL1         0.1015
     139    H9      19.159490   17.467723   23.215316 H          1 MOL1         0.1015
     140    N1      18.520354   18.357304   25.026279 N.4        1 MOL1        -0.4809
     141    H10     17.540295   18.471680   24.684637 H          1 MOL1         0.3726
     142    H11     18.704813   19.186986   25.607272 H          1 MOL1         0.3726
     143    C5      18.641777   17.081004   25.845546 C.3        1 MOL1        -0.0677
     144    H12     18.389474   16.228217   25.211002 H          1 MOL1         0.1026
     145    H13     19.666873   16.979233   26.207420 H          1 MOL1         0.1026
     146    H14     17.950130   17.129179   26.688964 H          1 MOL1         0.1026
@<TRIPOS>BOND
    1     1     2    1
    2     1     3    1
    3     1     4    1
    4     4     5    1
    5     4     6    1
    6     6     7    1
    7     4     8    1
    8     8     9    1
    9     8    10    1
   10    10    11    1
   11     8    12    1
   12    12    13    1
   13    12    14    1
   14    14    15    1
   15     1    16    1
   16    14    16    1
   17    14    17    1
   18    17    18    1
   19    17    19    1
   20    17    20    1
   21    20    21    1
   22    22    23    1
   23    22    24    1
   24    22    25    1
   25    25    26    1
   26    25    27    1
   27    27    28    1
   28    25    29    1
   29    29    30    1
   30    29    31    1
   31    31    32    1
   32     3    33    1
   33    29    33    1
   34    33    34    1
   35    33    35    1
   36    35    36    1
   37    22    37    1
   38    35    37    1
   39    35    38    1
   40    38    39    1
   41    38    40    1
   42    38    41    1
   43    41    42    1
   44    43    44    1
   45    43    45    1
   46    43    46    1
   47    46    47    1
   48    46    48    1
   49    48    49    1
   50    46    50    1
   51    50    51    1
   52    50    52    1
   53    52    53    1
   54    24    54    1
   55    50    54    1
   56    54    55    1
   57    54    56    1
   58    56    57    1
   59    43    58    1
   60    56    58    1
   61    56    59    1
   62    59    60    1
   63    59    61    1
   64    59    62    1
   65    62    63    1
   66    64    65    1
   67    64    66    1
   68    64    67    1
   69    67    68    1
   70    67    69    1
   71    69    70    1
   72    67    71    1
   73    71    72    1
   74    71    73    1
   75    73    74    1
   76    45    75    1
   77    71    75    1
   78    75    76    1
   79    75    77    1
   80    77    78    1
   81    64    79    1
   82    77    79    1
   83    77    80    1
   84    80    81    1
   85    80    82    1
   86    80    83    1
   87    83    84    1
   88    85    86    1
   89    85    87    1
   90    85    88    1
   91    88    89    1
   92    88    90    1
   93    90    91    1
   94    88    92    1
   95    92    93    1
   96    92    94    1
   97    94    95    1
   98    66    96    1
   99    92    96    1
  100    96    97    1
  101    96    98    1
  102    98    99    1
  103    85   100    1
  104    98   100    1
  105    98   101    1
  106   101   102    1
  107   101   103    1
  108   101   104    1
  109   104   105    1
  110   106   107    1
  111    12   108    1
  112   106   108    1
  113   106   109    1
  114   109   110    1
  115   109   111    1
  116   111   112    1
  117   109   113    1
  118   113   114    1
  119   113   115    1
  120   115   116    1
  121    87   117    1
  122   113   117    1
  123   117   118    1
  124   117   119    1
  125   119   120    1
  126   106   121    1
  127   119   121    1
  128   119   122    1
  129   122   123    1
  130   122   124    1
  131   122   125    1
  132   125   126    1
  133   127   128    1
  134   127   129    1
  135   127   130    1
  136   127   131    1
  137   131   132    1
  138   131   133    1
  139   131   134    1
  140   134   135    1
  141   134   136    1
  142   134   137    1
  143   137   138    1
  144   137   139    1
  145   137   140    1
  146   140   141    1
  147   140   142    1
  148   140   143    1
  149   143   144    1
  150   143   145    1
  151   143   146    1
@<TRIPOS>SUBSTRUCTURE
       1 MOL1            1 RESIDUE      1      MOL     
       2 MOL1          146 RESIDUE      1      MOL     
@<SCITEGIC>MOL_PROPERTY
VM2 Rank
SciTegic.value.IntegerValue
8

@<SCITEGIC>MOL_PROPERTY
Conf_Id
SciTegic.value.IntegerValue
23939

@<SCITEGIC>MOL_PROPERTY
Probability
SciTegic.value.DoubleValue
0.97

@<SCITEGIC>MOL_PROPERTY
Sum Probability
SciTegic.value.DoubleValue
10.73

@<SCITEGIC>MOL_PROPERTY
Delta G
SciTegic.value.DoubleValue
0.399

@<SCITEGIC>MOL_PROPERTY
G
SciTegic.value.DoubleValue
577.869

@<SCITEGIC>MOL_PROPERTY
E
SciTegic.value.DoubleValue
385.064

@<SCITEGIC>MOL_PROPERTY
-TS
SciTegic.value.DoubleValue
192.805

@<SCITEGIC>MOL_PROPERTY
U+W
SciTegic.value.DoubleValue
256.293

@<SCITEGIC>MOL_PROPERTY
U
SciTegic.value.DoubleValue
333.407

@<SCITEGIC>MOL_PROPERTY
W
SciTegic.value.DoubleValue
-77.114

@<SCITEGIC>MOL_PROPERTY
W(PB)
SciTegic.value.DoubleValue
-83.282

@<SCITEGIC>MOL_PROPERTY
W(SA)
SciTegic.value.DoubleValue
6.168

@<SCITEGIC>MOL_PROPERTY
Valence
SciTegic.value.DoubleValue
143.847

@<SCITEGIC>MOL_PROPERTY
Coulomb
SciTegic.value.DoubleValue
213.637

@<SCITEGIC>MOL_PROPERTY
VdW
SciTegic.value.DoubleValue
-24.077

@<SCITEGIC>MOL_PROPERTY
VdW6
SciTegic.value.DoubleValue
-173.779

@<SCITEGIC>MOL_PROPERTY
VdW12
SciTegic.value.DoubleValue
149.702

@<SCITEGIC>MOL_PROPERTY
Bond
SciTegic.value.DoubleValue
4.408

@<SCITEGIC>MOL_PROPERTY
Angle
SciTegic.value.DoubleValue
9.974

@<SCITEGIC>MOL_PROPERTY
Pdih
SciTegic.value.DoubleValue
129.464

@<SCITEGIC>MOL_PROPERTY
Idih
SciTegic.value.DoubleValue
0.000

@<SCITEGIC>MOL_PROPERTY
Tether
SciTegic.value.DoubleValue
0.000

