@<TRIPOS>MOLECULE
CD_guest-4_vm2_single.mol2 : vm2 host+ligand conformer 1
         142         148           2
SMALL
USER_CHARGES
 
@<TRIPOS>ATOM
       1    C1      16.280413   15.119146   21.216533 C.3        1 MOL1         0.2972
       2    H1      15.194997   14.957844   21.185828 H          1 MOL1         0.0751
       3    O1      16.607752   16.508177   21.424006 O.3        1 MOL1        -0.3740
       4    C2      16.931791   14.286295   22.350706 C.3        1 MOL1         0.1003
       5    H2      16.728741   13.229161   22.135621 H          1 MOL1         0.0783
       6    O2      16.371676   14.616747   23.631220 O.3        1 MOL1        -0.5519
       7    H3      16.395613   15.603159   23.722666 H          1 MOL1         0.3769
       8    C3      18.467983   14.480529   22.360814 C.3        1 MOL1         0.1053
       9    H4      18.681451   15.516357   22.650041 H          1 MOL1         0.0783
      10    O3      19.054169   13.581394   23.308084 O.3        1 MOL1        -0.5519
      11    H5      18.514848   13.682374   24.123381 H          1 MOL1         0.3769
      12    C4      19.078338   14.235803   20.958668 C.3        1 MOL1         0.1018
      13    H6      19.095793   13.153339   20.775131 H          1 MOL1         0.0783
      14    C5      18.291388   14.953943   19.827081 C.3        1 MOL1         0.1043
      15    H7      18.480781   16.033099   19.902760 H          1 MOL1         0.0783
      16    O4      16.873404   14.696961   19.970551 O.3        1 MOL1        -0.3740
      17    C6      18.706833   14.502234   18.409058 C.3        1 MOL1         0.0138
      18    H8      19.753515   14.783336   18.234940 H          1 MOL1         0.0794
      19    H9      18.097516   15.044083   17.673433 H          1 MOL1         0.0794
      20    O5      18.541547   13.090316   18.246995 O.3        1 MOL1        -0.5486
      21    H10     17.597212   12.900291   18.443432 H          1 MOL1         0.3769
      22    C7      14.892568   20.247605   21.901154 C.3        1 MOL1         0.2972
      23    H11     14.232315   21.107250   22.074148 H          1 MOL1         0.0751
      24    O6      16.172840   20.655241   21.376432 O.3        1 MOL1        -0.3740
      25    C8      15.108521   19.460108   23.218818 C.3        1 MOL1         0.1003
      26    H12     14.127540   19.079052   23.531361 H          1 MOL1         0.0783
      27    O7      15.635102   20.293866   24.262610 O.3        1 MOL1        -0.5519
      28    H13     15.663313   21.217601   23.912929 H          1 MOL1         0.3769
      29    C9      16.036064   18.247535   22.977813 C.3        1 MOL1         0.1053
      30    H14     17.028669   18.626128   22.705392 H          1 MOL1         0.0783
      31    O8      16.120834   17.478733   24.180905 O.3        1 MOL1        -0.5519
      32    H15     16.234190   18.150100   24.891089 H          1 MOL1         0.3769
      33    C10     15.518165   17.367236   21.814470 C.3        1 MOL1         0.1018
      34    H16     14.653418   16.794621   22.175457 H          1 MOL1         0.0783
      35    C11     15.118039   18.204062   20.564882 C.3        1 MOL1         0.1043
      36    H17     16.037626   18.565813   20.085819 H          1 MOL1         0.0783
      37    O9      14.296214   19.335461   20.953953 O.3        1 MOL1        -0.3740
      38    C12     14.330228   17.392007   19.512694 C.3        1 MOL1         0.0138
      39    H18     14.973713   16.593750   19.119714 H          1 MOL1         0.0794
      40    H19     14.079654   18.052396   18.671759 H          1 MOL1         0.0794
      41    O10     13.140180   16.833215   20.077004 O.3        1 MOL1        -0.5486
      42    H20     12.621630   17.590066   20.430367 H          1 MOL1         0.3769
      43    C13     18.417997   24.068491   20.692575 C.3        1 MOL1         0.2972
      44    H21     18.801780   25.052971   20.396279 H          1 MOL1         0.0751
      45    O11     19.468599   23.192061   21.149688 O.3        1 MOL1        -0.3740
      46    C14     17.392284   24.210424   21.842797 C.3        1 MOL1         0.1003
      47    H22     16.562524   24.824797   21.469750 H          1 MOL1         0.0783
      48    O12     17.982269   24.857235   22.981733 O.3        1 MOL1        -0.5519
      49    H23     18.907595   24.514130   23.070447 H          1 MOL1         0.3769
      50    C15     16.821060   22.827707   22.241153 C.3        1 MOL1         0.1053
      51    H24     17.633235   22.248309   22.698512 H          1 MOL1         0.0783
      52    O13     15.767421   23.019130   23.190536 O.3        1 MOL1        -0.5519
      53    H25     16.100622   23.718931   23.797553 H          1 MOL1         0.3769
      54    C16     16.304736   22.041372   21.004286 C.3        1 MOL1         0.1018
      55    H26     15.345232   22.461493   20.674175 H          1 MOL1         0.0783
      56    C17     17.297128   22.081145   19.810642 C.3        1 MOL1         0.1043
      57    H27     18.157442   21.438098   20.033275 H          1 MOL1         0.0783
      58    O14     17.736181   23.442367   19.586279 O.3        1 MOL1        -0.3740
      59    C18     16.645076   21.580015   18.505416 C.3        1 MOL1         0.0138
      60    H28     15.808122   22.240128   18.240984 H          1 MOL1         0.0794
      61    H29     16.237598   20.573445   18.668316 H          1 MOL1         0.0794
      62    O15     17.612401   21.551313   17.454036 O.3        1 MOL1        -0.5486
      63    H30     17.992142   22.456726   17.410804 H          1 MOL1         0.3769
      64    C19     23.591067   22.743679   21.268490 C.3        1 MOL1         0.2972
      65    H31     24.680498   22.858841   21.198078 H          1 MOL1         0.0751
      66    O16     23.218361   21.375275   21.529057 O.3        1 MOL1        -0.3740
      67    C20     22.999932   23.655264   22.376719 C.3        1 MOL1         0.1003
      68    H32     23.209515   24.693514   22.088238 H          1 MOL1         0.0783
      69    O17     23.600215   23.401285   23.655440 O.3        1 MOL1        -0.5519
      70    H33     23.435786   22.448813   23.873241 H          1 MOL1         0.3769
      71    C21     21.463470   23.483291   22.449068 C.3        1 MOL1         0.1053
      72    H34     21.251189   22.456728   22.773483 H          1 MOL1         0.0783
      73    O18     20.918942   24.412840   23.391379 O.3        1 MOL1        -0.5519
      74    H35     21.516171   24.366845   24.171031 H          1 MOL1         0.3769
      75    C22     20.813062   23.701178   21.060097 C.3        1 MOL1         0.1018
      76    H36     20.832491   24.775835   20.836310 H          1 MOL1         0.0783
      77    C23     21.542005   22.919262   19.931311 C.3        1 MOL1         0.1043
      78    H37     21.319541   21.850187   20.048506 H          1 MOL1         0.0783
      79    O19     22.973449   23.134870   20.023648 O.3        1 MOL1        -0.3740
      80    C24     21.099327   23.338946   18.512106 C.3        1 MOL1         0.0138
      81    H38     20.036127   23.101342   18.383168 H          1 MOL1         0.0794
      82    H39     21.657501   22.742930   17.777792 H          1 MOL1         0.0794
      83    O20     21.323970   24.734785   18.292193 O.3        1 MOL1        -0.5486
      84    H40     22.281080   24.887414   18.456487 H          1 MOL1         0.3769
      85    C25     24.656019   17.644534   22.550920 C.3        1 MOL1         0.2972
      86    H41     25.227648   16.774772   22.898185 H          1 MOL1         0.0751
      87    O21     23.463489   17.245819   21.844890 O.3        1 MOL1        -0.3740
      88    C26     24.259206   18.531475   23.757797 C.3        1 MOL1         0.1003
      89    H42     25.191110   18.877653   24.223227 H          1 MOL1         0.0783
      90    O22     23.502988   17.793168   24.728586 O.3        1 MOL1        -0.5519
      91    H43     22.691938   17.450401   24.275345 H          1 MOL1         0.3769
      92    C27     23.468720   19.776032   23.297110 C.3        1 MOL1         0.1053
      93    H44     22.502972   19.434012   22.907069 H          1 MOL1         0.0783
      94    O23     23.263311   20.638714   24.419833 O.3        1 MOL1        -0.5519
      95    H45     22.981339   20.041991   25.148002 H          1 MOL1         0.3769
      96    C28     24.204674   20.541272   22.169306 C.3        1 MOL1         0.1018
      97    H46     25.017433   21.130647   22.614504 H          1 MOL1         0.0783
      98    C29     24.767678   19.595856   21.071492 C.3        1 MOL1         0.1043
      99    H47     23.916774   19.243598   20.476841 H          1 MOL1         0.0783
     100    O24     25.451609   18.460477   21.663382 O.3        1 MOL1        -0.3740
     101    C30     25.754138   20.292402   20.108127 C.3        1 MOL1         0.0138
     102    H48     25.221293   21.077604   19.555474 H          1 MOL1         0.0794
     103    H49     26.107485   19.558022   19.371955 H          1 MOL1         0.0794
     104    O25     26.860551   20.854291   20.819598 O.3        1 MOL1        -0.5486
     105    H50     27.278404   20.111960   21.310542 H          1 MOL1         0.3769
     106    C31     21.452072   13.989622   20.416704 C.3        1 MOL1         0.2972
     107    H51     21.060386   13.085522   19.932921 H          1 MOL1         0.0751
     108    O26     20.401827   14.799869   20.979691 O.3        1 MOL1        -0.3740
     109    C32     22.441381   13.626725   21.547266 C.3        1 MOL1         0.1003
     110    H52     23.278677   13.085008   21.088520 H          1 MOL1         0.0783
     111    O27     21.813543   12.784029   22.526925 O.3        1 MOL1        -0.5519
     112    H53     20.954413   13.212142   22.774715 H          1 MOL1         0.3769
     113    C33     23.006505   14.904536   22.214549 C.3        1 MOL1         0.1053
     114    H54     22.192577   15.359848   22.791613 H          1 MOL1         0.0783
     115    O28     24.070805   14.527715   23.093825 O.3        1 MOL1        -0.5519
     116    H55     23.699269   13.812445   23.655274 H          1 MOL1         0.3769
     117    C34     23.507122   15.961349   21.185911 C.3        1 MOL1         0.1018
     118    H56     24.527152   15.708624   20.866780 H          1 MOL1         0.0783
     119    C35     22.606860   16.088424   19.922755 C.3        1 MOL1         0.1043
     120    H57     21.731766   16.704464   20.168709 H          1 MOL1         0.0783
     121    O29     22.184148   14.782228   19.464852 O.3        1 MOL1        -0.3740
     122    C36     23.353748   16.744594   18.742789 C.3        1 MOL1         0.0138
     123    H58     24.171670   16.085304   18.422378 H          1 MOL1         0.0794
     124    H59     23.801167   17.689185   19.069055 H          1 MOL1         0.0794
     125    O30     22.450604   16.982325   17.661595 O.3        1 MOL1        -0.5486
     126    H60     22.014872   16.120621   17.478225 H          1 MOL1         0.3769
     127    C1      19.684944   19.774891   22.311189 C.3        1 MOL1        -0.1689
     128    H1      18.877118   20.039003   21.619247 H          1 MOL1         0.0830
     129    H2      20.597743   20.274314   21.962819 H          1 MOL1         0.0830
     130    C2      19.347870   20.216869   23.746760 C.3        1 MOL1        -0.1689
     131    H3      19.781038   21.193373   23.998506 H          1 MOL1         0.0830
     132    H4      18.260466   20.294061   23.861437 H          1 MOL1         0.0830
     133    C3      19.873311   19.099049   24.659345 C.3        1 MOL1        -0.1765
     134    H5      19.299404   19.032740   25.592201 H          1 MOL1         0.0830
     135    H6      20.921089   19.293216   24.915449 H          1 MOL1         0.0830
     136    C4      19.762703   17.813044   23.830892 C.3        1 MOL1         0.1214
     137    H7      18.766749   17.374865   23.980221 H          1 MOL1         0.0787
     138    C5      19.902555   18.246702   22.360125 C.3        1 MOL1        -0.1765
     139    H8      20.895889   17.993164   21.972460 H          1 MOL1         0.0830
     140    H9      19.164221   17.725514   21.738734 H          1 MOL1         0.0830
     141    O1      20.785978   16.898249   24.196021 O.3        1 MOL1        -0.5512
     142    H10     20.561544   16.574115   25.091471 H          1 MOL1         0.3776
@<TRIPOS>BOND
    1     1     2    1
    2     1     3    1
    3     1     4    1
    4     4     5    1
    5     4     6    1
    6     6     7    1
    7     4     8    1
    8     8     9    1
    9     8    10    1
   10    10    11    1
   11     8    12    1
   12    12    13    1
   13    12    14    1
   14    14    15    1
   15     1    16    1
   16    14    16    1
   17    14    17    1
   18    17    18    1
   19    17    19    1
   20    17    20    1
   21    20    21    1
   22    22    23    1
   23    22    24    1
   24    22    25    1
   25    25    26    1
   26    25    27    1
   27    27    28    1
   28    25    29    1
   29    29    30    1
   30    29    31    1
   31    31    32    1
   32     3    33    1
   33    29    33    1
   34    33    34    1
   35    33    35    1
   36    35    36    1
   37    22    37    1
   38    35    37    1
   39    35    38    1
   40    38    39    1
   41    38    40    1
   42    38    41    1
   43    41    42    1
   44    43    44    1
   45    43    45    1
   46    43    46    1
   47    46    47    1
   48    46    48    1
   49    48    49    1
   50    46    50    1
   51    50    51    1
   52    50    52    1
   53    52    53    1
   54    24    54    1
   55    50    54    1
   56    54    55    1
   57    54    56    1
   58    56    57    1
   59    43    58    1
   60    56    58    1
   61    56    59    1
   62    59    60    1
   63    59    61    1
   64    59    62    1
   65    62    63    1
   66    64    65    1
   67    64    66    1
   68    64    67    1
   69    67    68    1
   70    67    69    1
   71    69    70    1
   72    67    71    1
   73    71    72    1
   74    71    73    1
   75    73    74    1
   76    45    75    1
   77    71    75    1
   78    75    76    1
   79    75    77    1
   80    77    78    1
   81    64    79    1
   82    77    79    1
   83    77    80    1
   84    80    81    1
   85    80    82    1
   86    80    83    1
   87    83    84    1
   88    85    86    1
   89    85    87    1
   90    85    88    1
   91    88    89    1
   92    88    90    1
   93    90    91    1
   94    88    92    1
   95    92    93    1
   96    92    94    1
   97    94    95    1
   98    66    96    1
   99    92    96    1
  100    96    97    1
  101    96    98    1
  102    98    99    1
  103    85   100    1
  104    98   100    1
  105    98   101    1
  106   101   102    1
  107   101   103    1
  108   101   104    1
  109   104   105    1
  110   106   107    1
  111    12   108    1
  112   106   108    1
  113   106   109    1
  114   109   110    1
  115   109   111    1
  116   111   112    1
  117   109   113    1
  118   113   114    1
  119   113   115    1
  120   115   116    1
  121    87   117    1
  122   113   117    1
  123   117   118    1
  124   117   119    1
  125   119   120    1
  126   106   121    1
  127   119   121    1
  128   119   122    1
  129   122   123    1
  130   122   124    1
  131   122   125    1
  132   125   126    1
  133   127   128    1
  134   127   129    1
  135   127   130    1
  136   130   131    1
  137   130   132    1
  138   130   133    1
  139   133   134    1
  140   133   135    1
  141   133   136    1
  142   136   137    1
  143   127   138    1
  144   136   138    1
  145   138   139    1
  146   138   140    1
  147   136   141    1
  148   141   142    1
@<TRIPOS>SUBSTRUCTURE
       1 MOL1            1 RESIDUE      1      MOL     
       2 MOL1          142 RESIDUE      1      MOL     
@<SCITEGIC>MOL_PROPERTY
VM2 Rank
SciTegic.value.IntegerValue
1

@<SCITEGIC>MOL_PROPERTY
Conf_Id
SciTegic.value.IntegerValue
17649

@<SCITEGIC>MOL_PROPERTY
Probability
SciTegic.value.DoubleValue
1.21

@<SCITEGIC>MOL_PROPERTY
Sum Probability
SciTegic.value.DoubleValue
1.21

@<SCITEGIC>MOL_PROPERTY
Delta G
SciTegic.value.DoubleValue
0.000

@<SCITEGIC>MOL_PROPERTY
G
SciTegic.value.DoubleValue
549.356

@<SCITEGIC>MOL_PROPERTY
E
SciTegic.value.DoubleValue
365.034

@<SCITEGIC>MOL_PROPERTY
-TS
SciTegic.value.DoubleValue
184.323

@<SCITEGIC>MOL_PROPERTY
U+W
SciTegic.value.DoubleValue
239.840

@<SCITEGIC>MOL_PROPERTY
U
SciTegic.value.DoubleValue
272.925

@<SCITEGIC>MOL_PROPERTY
W
SciTegic.value.DoubleValue
-33.085

@<SCITEGIC>MOL_PROPERTY
W(PB)
SciTegic.value.DoubleValue
-39.209

@<SCITEGIC>MOL_PROPERTY
W(SA)
SciTegic.value.DoubleValue
6.125

@<SCITEGIC>MOL_PROPERTY
Valence
SciTegic.value.DoubleValue
158.221

@<SCITEGIC>MOL_PROPERTY
Coulomb
SciTegic.value.DoubleValue
139.349

@<SCITEGIC>MOL_PROPERTY
VdW
SciTegic.value.DoubleValue
-24.645

@<SCITEGIC>MOL_PROPERTY
VdW6
SciTegic.value.DoubleValue
-169.639

@<SCITEGIC>MOL_PROPERTY
VdW12
SciTegic.value.DoubleValue
144.993

@<SCITEGIC>MOL_PROPERTY
Bond
SciTegic.value.DoubleValue
4.314

@<SCITEGIC>MOL_PROPERTY
Angle
SciTegic.value.DoubleValue
12.259

@<SCITEGIC>MOL_PROPERTY
Pdih
SciTegic.value.DoubleValue
141.648

@<SCITEGIC>MOL_PROPERTY
Idih
SciTegic.value.DoubleValue
0.000

@<SCITEGIC>MOL_PROPERTY
Tether
SciTegic.value.DoubleValue
0.000

