@<TRIPOS>MOLECULE
CD_guest-s12_vm2_single.mol2 : vm2 host+ligand conformer 1
         152         157           2
SMALL
USER_CHARGES
 
@<TRIPOS>ATOM
       1    C1      16.124005   15.062347   20.205877 C.3        1 MOL1         0.2972
       2    H1      15.078690   14.964190   19.885826 H          1 MOL1         0.0751
       3    O1      16.427466   16.413046   20.621224 O.3        1 MOL1        -0.3740
       4    C2      16.468160   14.056071   21.333291 C.3        1 MOL1         0.1003
       5    H2      16.393222   13.051215   20.897210 H          1 MOL1         0.0783
       6    O2      15.559920   14.138095   22.440732 O.3        1 MOL1        -0.5519
       7    H3      15.723808   15.010613   22.878907 H          1 MOL1         0.3769
       8    C3      17.928965   14.261225   21.799476 C.3        1 MOL1         0.1053
       9    H4      18.001485   15.255947   22.258834 H          1 MOL1         0.0783
      10    O3      18.240238   13.253953   22.769206 O.3        1 MOL1        -0.5519
      11    H5      17.415159   13.143526   23.295084 H          1 MOL1         0.3769
      12    C4      18.925268   14.214592   20.602075 C.3        1 MOL1         0.1018
      13    H6      19.102716   13.169423   20.315846 H          1 MOL1         0.0783
      14    C5      18.418264   14.996124   19.355039 C.3        1 MOL1         0.1043
      15    H7      18.570080   16.068102   19.526819 H          1 MOL1         0.0783
      16    O4      17.011230   14.733516   19.116321 O.3        1 MOL1        -0.3740
      17    C6      19.194189   14.610711   18.079234 C.3        1 MOL1         0.0138
      18    H8      18.982090   13.563020   17.827196 H          1 MOL1         0.0794
      19    H9      20.272067   14.697629   18.271910 H          1 MOL1         0.0794
      20    O5      18.821445   15.473673   17.003139 O.3        1 MOL1        -0.5486
      21    H10     17.839440   15.447677   16.959989 H          1 MOL1         0.3769
      22    C7      15.029881   19.950285   22.194391 C.3        1 MOL1         0.2972
      23    H11     14.454380   20.768298   22.646349 H          1 MOL1         0.0751
      24    O6      16.268047   20.425003   21.626432 O.3        1 MOL1        -0.3740
      25    C8      15.345614   18.873238   23.260341 C.3        1 MOL1         0.1003
      26    H12     14.383605   18.508098   23.642966 H          1 MOL1         0.0783
      27    O7      16.109261   19.420455   24.349068 O.3        1 MOL1        -0.5519
      28    H13     16.000047   20.401692   24.313393 H          1 MOL1         0.3769
      29    C9      16.100532   17.677432   22.635901 C.3        1 MOL1         0.1053
      30    H14     17.101247   18.018550   22.352374 H          1 MOL1         0.0783
      31    O8      16.210138   16.650632   23.623908 O.3        1 MOL1        -0.5519
      32    H15     16.504752   17.120689   24.436584 H          1 MOL1         0.3769
      33    C10     15.417470   17.141859   21.349502 C.3        1 MOL1         0.1018
      34    H16     14.565495   16.507839   21.628019 H          1 MOL1         0.0783
      35    C11     14.945799   18.281804   20.403268 C.3        1 MOL1         0.1043
      36    H17     15.832013   18.708313   19.915646 H          1 MOL1         0.0783
      37    O9      14.261105   19.317950   21.149800 O.3        1 MOL1        -0.3740
      38    C12     13.994070   17.791876   19.289639 C.3        1 MOL1         0.0138
      39    H18     14.530359   17.079213   18.649007 H          1 MOL1         0.0794
      40    H19     13.713240   18.648526   18.662388 H          1 MOL1         0.0794
      41    O10     12.826575   17.176502   19.841350 O.3        1 MOL1        -0.5486
      42    H20     12.412689   17.848034   20.428261 H          1 MOL1         0.3769
      43    C13     18.388515   24.023491   21.421648 C.3        1 MOL1         0.2972
      44    H21     18.659567   25.078155   21.286973 H          1 MOL1         0.0751
      45    O11     19.549752   23.191133   21.607953 O.3        1 MOL1        -0.3740
      46    C14     17.489623   23.865054   22.673053 C.3        1 MOL1         0.1003
      47    H22     16.601819   24.492782   22.521822 H          1 MOL1         0.0783
      48    O12     18.180226   24.300830   23.855493 O.3        1 MOL1        -0.5519
      49    H23     19.148625   24.176260   23.693841 H          1 MOL1         0.3769
      50    C15     17.015533   22.401411   22.838054 C.3        1 MOL1         0.1053
      51    H24     17.893407   21.791849   23.080180 H          1 MOL1         0.0783
      52    O13     16.074240   22.339906   23.914723 O.3        1 MOL1        -0.5519
      53    H25     16.438352   22.947299   24.598144 H          1 MOL1         0.3769
      54    C16     16.397642   21.856966   21.520334 C.3        1 MOL1         0.1018
      55    H26     15.424287   22.333438   21.341682 H          1 MOL1         0.0783
      56    C17     17.311958   22.132312   20.299223 C.3        1 MOL1         0.1043
      57    H27     18.214690   21.513748   20.381223 H          1 MOL1         0.0783
      58    O14     17.657338   23.538834   20.275775 O.3        1 MOL1        -0.3740
      59    C18     16.611920   21.800006   18.964636 C.3        1 MOL1         0.0138
      60    H28     15.800782   22.519575   18.790192 H          1 MOL1         0.0794
      61    H29     16.160751   20.801932   19.029947 H          1 MOL1         0.0794
      62    O15     17.553576   21.829435   17.890582 O.3        1 MOL1        -0.5486
      63    H30     17.973132   22.716522   17.904256 H          1 MOL1         0.3769
      64    C19     23.640596   22.987231   21.131044 C.3        1 MOL1         0.2972
      65    H31     24.707859   23.142829   20.927466 H          1 MOL1         0.0751
      66    O16     23.332530   21.603706   21.401514 O.3        1 MOL1        -0.3740
      67    C20     23.180916   23.822802   22.351181 C.3        1 MOL1         0.1003
      68    H32     23.314653   24.883087   22.100251 H          1 MOL1         0.0783
      69    O17     23.956361   23.511118   23.519056 O.3        1 MOL1        -0.5519
      70    H33     24.037111   22.524751   23.569915 H          1 MOL1         0.3769
      71    C21     21.678295   23.574342   22.616503 C.3        1 MOL1         0.1053
      72    H34     21.571147   22.526134   22.915916 H          1 MOL1         0.0783
      73    O18     21.218432   24.424636   23.671334 O.3        1 MOL1        -0.5519
      74    H35     21.941027   24.415163   24.338229 H          1 MOL1         0.3769
      75    C22     20.827310   23.802244   21.341318 C.3        1 MOL1         0.1018
      76    H36     20.743146   24.883118   21.167145 H          1 MOL1         0.0783
      77    C23     21.432269   23.125102   20.078474 C.3        1 MOL1         0.1043
      78    H37     21.271467   22.041805   20.138169 H          1 MOL1         0.0783
      79    O19     22.849758   23.415110   20.003546 O.3        1 MOL1        -0.3740
      80    C24     20.795904   23.634564   18.769825 C.3        1 MOL1         0.0138
      81    H38     20.994996   24.709191   18.662058 H          1 MOL1         0.0794
      82    H39     19.710055   23.498251   18.816471 H          1 MOL1         0.0794
      83    O20     21.324252   22.911224   17.657267 O.3        1 MOL1        -0.5486
      84    H40     22.301350   22.993631   17.719625 H          1 MOL1         0.3769
      85    C25     24.956342   17.797562   21.406881 C.3        1 MOL1         0.2972
      86    H41     25.607430   16.914750   21.364532 H          1 MOL1         0.0751
      87    O21     23.562369   17.426944   21.320577 O.3        1 MOL1        -0.3740
      88    C26     25.209013   18.615446   22.703354 C.3        1 MOL1         0.1003
      89    H42     26.248362   18.966778   22.664077 H          1 MOL1         0.0783
      90    O22     25.037132   17.825017   23.888513 O.3        1 MOL1        -0.5519
      91    H43     24.085269   17.553298   23.917010 H          1 MOL1         0.3769
      92    C27     24.289692   19.858595   22.739283 C.3        1 MOL1         0.1053
      93    H44     23.249943   19.514487   22.807936 H          1 MOL1         0.0783
      94    O23     24.609069   20.658528   23.881882 O.3        1 MOL1        -0.5519
      95    H45     24.726900   20.017857   24.618411 H          1 MOL1         0.3769
      96    C28     24.447306   20.696352   21.446219 C.3        1 MOL1         0.1018
      97    H46     25.408106   21.225853   21.493397 H          1 MOL1         0.0783
      98    C29     24.385457   19.828089   20.158412 C.3        1 MOL1         0.1043
      99    H47     23.348358   19.499125   20.011801 H          1 MOL1         0.0783
     100    O24     25.247896   18.671337   20.295498 O.3        1 MOL1        -0.3740
     101    C30     24.820614   20.590317   18.887043 C.3        1 MOL1         0.0138
     102    H48     24.120038   21.415779   18.706313 H          1 MOL1         0.0794
     103    H49     24.752757   19.910768   18.027019 H          1 MOL1         0.0794
     104    O25     26.153226   21.094263   19.017954 O.3        1 MOL1        -0.5486
     105    H50     26.724357   20.315851   19.203100 H          1 MOL1         0.3769
     106    C31     21.043872   14.140237   21.864046 C.3        1 MOL1         0.2972
     107    H51     20.632346   13.160106   22.134672 H          1 MOL1         0.0751
     108    O26     20.159553   14.863786   20.982006 O.3        1 MOL1        -0.3740
     109    C32     21.310732   14.993445   23.135328 C.3        1 MOL1         0.1003
     110    H52     22.026111   14.435162   23.753262 H          1 MOL1         0.0783
     111    O27     20.116285   15.227396   23.898381 O.3        1 MOL1        -0.5519
     112    H53     19.509132   14.469204   23.725933 H          1 MOL1         0.3769
     113    C33     21.953105   16.346283   22.758029 C.3        1 MOL1         0.1053
     114    H54     21.219750   16.911352   22.173324 H          1 MOL1         0.0783
     115    O28     22.271251   17.057563   23.957724 O.3        1 MOL1        -0.5519
     116    H55     21.488491   16.914187   24.536238 H          1 MOL1         0.3769
     117    C34     23.211795   16.144207   21.880437 C.3        1 MOL1         0.1018
     118    H56     24.015504   15.738222   22.509060 H          1 MOL1         0.0783
     119    C35     22.935478   15.178000   20.694916 C.3        1 MOL1         0.1043
     120    H57     22.265494   15.681553   19.985081 H          1 MOL1         0.0783
     121    O29     22.306278   13.966793   21.183612 O.3        1 MOL1        -0.3740
     122    C36     24.212460   14.768069   19.927515 C.3        1 MOL1         0.0138
     123    H58     24.644337   15.658043   19.450650 H          1 MOL1         0.0794
     124    H59     23.934683   14.070857   19.125732 H          1 MOL1         0.0794
     125    O30     25.170486   14.163924   20.801638 O.3        1 MOL1        -0.5486
     126    H60     24.721882   13.390047   21.209529 H          1 MOL1         0.3769
     127    N1      19.936134   21.002504   26.585692 N.4        1 MOL1        -0.4857
     128    H1      20.947904   20.853352   26.717467 H          1 MOL1         0.3650
     129    H2      19.504686   20.743698   27.486390 H          1 MOL1         0.3650
     130    C1      19.409598   20.089655   25.491594 C.3        1 MOL1         0.0209
     131    H3      18.346355   20.306654   25.357278 H          1 MOL1         0.0967
     132    H4      19.502564   19.059804   25.845631 H          1 MOL1         0.0967
     133    C2      20.143729   20.227820   24.144604 C.3        1 MOL1        -0.1378
     134    H5      20.085141   21.268364   23.810177 H          1 MOL1         0.0993
     135    H6      21.206439   19.979574   24.268239 H          1 MOL1         0.0993
     136    C3      19.508317   19.325888   23.069972 C.3        1 MOL1        -0.1338
     137    H7      18.447434   19.582694   22.985454 H          1 MOL1         0.0993
     138    H8      19.557167   18.274225   23.385502 H          1 MOL1         0.0993
     139    C4      20.178605   19.498513   21.690752 C.3        1 MOL1        -0.1338
     140    H9      20.158358   20.556336   21.404618 H          1 MOL1         0.0993
     141    H10     21.235511   19.209220   21.753526 H          1 MOL1         0.0993
     142    C5      19.469572   18.660459   20.605364 C.3        1 MOL1        -0.1313
     143    H11     18.431110   19.000519   20.489959 H          1 MOL1         0.0993
     144    H12     19.421248   17.611014   20.923907 H          1 MOL1         0.0993
     145    C6      20.193194   18.754138   19.246149 C.3        1 MOL1        -0.2328
     146    H13     19.670601   18.157032   18.487016 H          1 MOL1         0.1004
     147    H14     21.221321   18.376876   19.320874 H          1 MOL1         0.1004
     148    H15     20.230834   19.792292   18.889018 H          1 MOL1         0.1004
     149    C7      19.640200   22.465651   26.272113 C.3        1 MOL1        -0.0781
     150    H16     18.564440   22.594188   26.133286 H          1 MOL1         0.0978
     151    H17     19.981677   23.086046   27.103464 H          1 MOL1         0.0978
     152    H18     20.165686   22.755728   25.360049 H          1 MOL1         0.0978
@<TRIPOS>BOND
    1     1     2    1
    2     1     3    1
    3     1     4    1
    4     4     5    1
    5     4     6    1
    6     6     7    1
    7     4     8    1
    8     8     9    1
    9     8    10    1
   10    10    11    1
   11     8    12    1
   12    12    13    1
   13    12    14    1
   14    14    15    1
   15     1    16    1
   16    14    16    1
   17    14    17    1
   18    17    18    1
   19    17    19    1
   20    17    20    1
   21    20    21    1
   22    22    23    1
   23    22    24    1
   24    22    25    1
   25    25    26    1
   26    25    27    1
   27    27    28    1
   28    25    29    1
   29    29    30    1
   30    29    31    1
   31    31    32    1
   32     3    33    1
   33    29    33    1
   34    33    34    1
   35    33    35    1
   36    35    36    1
   37    22    37    1
   38    35    37    1
   39    35    38    1
   40    38    39    1
   41    38    40    1
   42    38    41    1
   43    41    42    1
   44    43    44    1
   45    43    45    1
   46    43    46    1
   47    46    47    1
   48    46    48    1
   49    48    49    1
   50    46    50    1
   51    50    51    1
   52    50    52    1
   53    52    53    1
   54    24    54    1
   55    50    54    1
   56    54    55    1
   57    54    56    1
   58    56    57    1
   59    43    58    1
   60    56    58    1
   61    56    59    1
   62    59    60    1
   63    59    61    1
   64    59    62    1
   65    62    63    1
   66    64    65    1
   67    64    66    1
   68    64    67    1
   69    67    68    1
   70    67    69    1
   71    69    70    1
   72    67    71    1
   73    71    72    1
   74    71    73    1
   75    73    74    1
   76    45    75    1
   77    71    75    1
   78    75    76    1
   79    75    77    1
   80    77    78    1
   81    64    79    1
   82    77    79    1
   83    77    80    1
   84    80    81    1
   85    80    82    1
   86    80    83    1
   87    83    84    1
   88    85    86    1
   89    85    87    1
   90    85    88    1
   91    88    89    1
   92    88    90    1
   93    90    91    1
   94    88    92    1
   95    92    93    1
   96    92    94    1
   97    94    95    1
   98    66    96    1
   99    92    96    1
  100    96    97    1
  101    96    98    1
  102    98    99    1
  103    85   100    1
  104    98   100    1
  105    98   101    1
  106   101   102    1
  107   101   103    1
  108   101   104    1
  109   104   105    1
  110   106   107    1
  111    12   108    1
  112   106   108    1
  113   106   109    1
  114   109   110    1
  115   109   111    1
  116   111   112    1
  117   109   113    1
  118   113   114    1
  119   113   115    1
  120   115   116    1
  121    87   117    1
  122   113   117    1
  123   117   118    1
  124   117   119    1
  125   119   120    1
  126   106   121    1
  127   119   121    1
  128   119   122    1
  129   122   123    1
  130   122   124    1
  131   122   125    1
  132   125   126    1
  133   127   128    1
  134   127   129    1
  135   127   130    1
  136   130   131    1
  137   130   132    1
  138   130   133    1
  139   133   134    1
  140   133   135    1
  141   133   136    1
  142   136   137    1
  143   136   138    1
  144   136   139    1
  145   139   140    1
  146   139   141    1
  147   139   142    1
  148   142   143    1
  149   142   144    1
  150   142   145    1
  151   145   146    1
  152   145   147    1
  153   145   148    1
  154   127   149    1
  155   149   150    1
  156   149   151    1
  157   149   152    1
@<TRIPOS>SUBSTRUCTURE
       1 MOL1            1 RESIDUE      1      MOL     
       2 MOL1          152 RESIDUE      1      MOL     
@<SCITEGIC>MOL_PROPERTY
VM2 Rank
SciTegic.value.IntegerValue
1

@<SCITEGIC>MOL_PROPERTY
Conf_Id
SciTegic.value.IntegerValue
26065

@<SCITEGIC>MOL_PROPERTY
Probability
SciTegic.value.DoubleValue
2.17

@<SCITEGIC>MOL_PROPERTY
Sum Probability
SciTegic.value.DoubleValue
2.17

@<SCITEGIC>MOL_PROPERTY
Delta G
SciTegic.value.DoubleValue
0.000

@<SCITEGIC>MOL_PROPERTY
G
SciTegic.value.DoubleValue
595.974

@<SCITEGIC>MOL_PROPERTY
E
SciTegic.value.DoubleValue
393.331

@<SCITEGIC>MOL_PROPERTY
-TS
SciTegic.value.DoubleValue
202.642

@<SCITEGIC>MOL_PROPERTY
U+W
SciTegic.value.DoubleValue
259.195

@<SCITEGIC>MOL_PROPERTY
U
SciTegic.value.DoubleValue
337.534

@<SCITEGIC>MOL_PROPERTY
W
SciTegic.value.DoubleValue
-78.339

@<SCITEGIC>MOL_PROPERTY
W(PB)
SciTegic.value.DoubleValue
-84.455

@<SCITEGIC>MOL_PROPERTY
W(SA)
SciTegic.value.DoubleValue
6.116

@<SCITEGIC>MOL_PROPERTY
Valence
SciTegic.value.DoubleValue
146.736

@<SCITEGIC>MOL_PROPERTY
Coulomb
SciTegic.value.DoubleValue
218.462

@<SCITEGIC>MOL_PROPERTY
VdW
SciTegic.value.DoubleValue
-27.665

@<SCITEGIC>MOL_PROPERTY
VdW6
SciTegic.value.DoubleValue
-180.855

@<SCITEGIC>MOL_PROPERTY
VdW12
SciTegic.value.DoubleValue
153.190

@<SCITEGIC>MOL_PROPERTY
Bond
SciTegic.value.DoubleValue
4.461

@<SCITEGIC>MOL_PROPERTY
Angle
SciTegic.value.DoubleValue
10.272

@<SCITEGIC>MOL_PROPERTY
Pdih
SciTegic.value.DoubleValue
132.003

@<SCITEGIC>MOL_PROPERTY
Idih
SciTegic.value.DoubleValue
0.000

@<SCITEGIC>MOL_PROPERTY
Tether
SciTegic.value.DoubleValue
0.000

@<TRIPOS>MOLECULE
CD_guest-s12_vm2_single.mol2 : vm2 host+ligand conformer 2
         152         157           2
SMALL
USER_CHARGES
 
@<TRIPOS>ATOM
       1    C1      16.107595   15.107534   20.156550 C.3        1 MOL1         0.2972
       2    H1      15.058987   15.020340   19.844120 H          1 MOL1         0.0751
       3    O1      16.424447   16.452846   20.579531 O.3        1 MOL1        -0.3740
       4    C2      16.451551   14.089357   21.273290 C.3        1 MOL1         0.1003
       5    H2      16.373020   13.088604   20.828445 H          1 MOL1         0.0783
       6    O2      15.546021   14.164702   22.383524 O.3        1 MOL1        -0.5519
       7    H3      15.714892   15.032234   22.829620 H          1 MOL1         0.3769
       8    C3      17.913662   14.286917   21.737549 C.3        1 MOL1         0.1053
       9    H4      17.990540   15.280182   22.199099 H          1 MOL1         0.0783
      10    O3      18.223038   13.277366   22.705785 O.3        1 MOL1        -0.5519
      11    H5      17.396873   13.165902   23.229675 H          1 MOL1         0.3769
      12    C4      18.908549   14.240352   20.539270 C.3        1 MOL1         0.1018
      13    H6      19.094268   13.194166   20.262489 H          1 MOL1         0.0783
      14    C5      18.395745   15.012050   19.286063 C.3        1 MOL1         0.1043
      15    H7      18.559985   16.083670   19.450969 H          1 MOL1         0.0783
      16    O4      16.981425   14.780309   19.056712 O.3        1 MOL1        -0.3740
      17    C6      19.152232   14.624182   17.996713 C.3        1 MOL1         0.0138
      18    H8      20.224072   14.817640   18.138621 H          1 MOL1         0.0794
      19    H9      18.806114   15.267770   17.176951 H          1 MOL1         0.0794
      20    O5      18.937642   13.247931   17.670159 O.3        1 MOL1        -0.5486
      21    H10     17.962686   13.125889   17.631250 H          1 MOL1         0.3769
      22    C7      15.038214   19.980412   22.193893 C.3        1 MOL1         0.2972
      23    H11     14.463294   20.793561   22.655229 H          1 MOL1         0.0751
      24    O6      16.277084   20.460480   21.632388 O.3        1 MOL1        -0.3740
      25    C8      15.353177   18.890596   23.247056 C.3        1 MOL1         0.1003
      26    H12     14.390860   18.522534   23.626093 H          1 MOL1         0.0783
      27    O7      16.118161   19.424342   24.341500 O.3        1 MOL1        -0.5519
      28    H13     16.004666   20.405485   24.320974 H          1 MOL1         0.3769
      29    C9      16.106001   17.700720   22.608558 C.3        1 MOL1         0.1053
      30    H14     17.107087   18.042792   22.327691 H          1 MOL1         0.0783
      31    O8      16.214148   16.663006   23.585203 O.3        1 MOL1        -0.5519
      32    H15     16.511799   17.123284   24.402355 H          1 MOL1         0.3769
      33    C10     15.420201   17.181063   21.317178 C.3        1 MOL1         0.1018
      34    H16     14.564841   16.549413   21.590756 H          1 MOL1         0.0783
      35    C11     14.952535   18.332827   20.383491 C.3        1 MOL1         0.1043
      36    H17     15.840239   18.762930   19.901879 H          1 MOL1         0.0783
      37    O9      14.269231   19.361507   21.141424 O.3        1 MOL1        -0.3740
      38    C12     14.000659   17.858001   19.263410 C.3        1 MOL1         0.0138
      39    H18     14.535948   17.151764   18.614843 H          1 MOL1         0.0794
      40    H19     13.722075   18.722538   18.646054 H          1 MOL1         0.0794
      41    O10     12.831465   17.238565   19.806930 O.3        1 MOL1        -0.5486
      42    H20     12.418094   17.904224   20.400861 H          1 MOL1         0.3769
      43    C13     18.398101   24.063090   21.478946 C.3        1 MOL1         0.2972
      44    H21     18.666651   25.119879   21.356417 H          1 MOL1         0.0751
      45    O11     19.560833   23.232874   21.663974 O.3        1 MOL1        -0.3740
      46    C14     17.494248   23.888974   22.724721 C.3        1 MOL1         0.1003
      47    H22     16.607110   24.518756   22.578204 H          1 MOL1         0.0783
      48    O12     18.181591   24.309813   23.914582 O.3        1 MOL1        -0.5519
      49    H23     19.149878   24.181229   23.755900 H          1 MOL1         0.3769
      50    C15     17.019449   22.423337   22.870567 C.3        1 MOL1         0.1053
      51    H24     17.896245   21.811277   23.110863 H          1 MOL1         0.0783
      52    O13     16.072531   22.349803   23.941551 O.3        1 MOL1        -0.5519
      53    H25     16.433543   22.948419   24.634290 H          1 MOL1         0.3769
      54    C16     16.409175   21.893349   21.543171 C.3        1 MOL1         0.1018
      55    H26     15.437865   22.373028   21.362038 H          1 MOL1         0.0783
      56    C17     17.333934   22.179907   20.332837 C.3        1 MOL1         0.1043
      57    H27     18.237448   21.563635   20.420244 H          1 MOL1         0.0783
      58    O14     17.675173   23.587276   20.324177 O.3        1 MOL1        -0.3740
      59    C18     16.650935   21.854670   18.987694 C.3        1 MOL1         0.0138
      60    H28     15.856539   22.588350   18.795843 H          1 MOL1         0.0794
      61    H29     16.179910   20.865612   19.049134 H          1 MOL1         0.0794
      62    O15     17.611991   21.860229   17.930232 O.3        1 MOL1        -0.5486
      63    H30     18.047902   22.739373   17.943732 H          1 MOL1         0.3769
      64    C19     23.647536   23.026273   21.172811 C.3        1 MOL1         0.2972
      65    H31     24.715107   23.180657   20.969937 H          1 MOL1         0.0751
      66    O16     23.333672   21.639410   21.418776 O.3        1 MOL1        -0.3740
      67    C20     23.193619   23.842971   22.407842 C.3        1 MOL1         0.1003
      68    H32     23.329860   24.906842   22.174014 H          1 MOL1         0.0783
      69    O17     23.970922   23.510201   23.568568 O.3        1 MOL1        -0.5519
      70    H33     24.047021   22.522808   23.604599 H          1 MOL1         0.3769
      71    C21     21.690953   23.594595   22.672359 C.3        1 MOL1         0.1053
      72    H34     21.581078   22.541595   22.953526 H          1 MOL1         0.0783
      73    O18     21.235426   24.427286   23.743101 O.3        1 MOL1        -0.5519
      74    H35     21.958753   24.403257   24.408793 H          1 MOL1         0.3769
      75    C22     20.837738   23.847788   21.403527 C.3        1 MOL1         0.1018
      76    H36     20.753948   24.931955   21.250945 H          1 MOL1         0.0783
      77    C23     21.438036   23.193924   20.125975 C.3        1 MOL1         0.1043
      78    H37     21.271556   22.110512   20.163782 H          1 MOL1         0.0783
      79    O19     22.856960   23.477617   20.054426 O.3        1 MOL1        -0.3740
      80    C24     20.803902   23.733856   18.828386 C.3        1 MOL1         0.0138
      81    H38     21.020762   24.806478   18.735900 H          1 MOL1         0.0794
      82    H39     19.716277   23.615882   18.877726 H          1 MOL1         0.0794
      83    O20     21.313912   23.018571   17.702217 O.3        1 MOL1        -0.5486
      84    H40     22.292458   23.087642   17.757082 H          1 MOL1         0.3769
      85    C25     24.945323   17.827740   21.367724 C.3        1 MOL1         0.2972
      86    H41     25.594219   16.944049   21.312178 H          1 MOL1         0.0751
      87    O21     23.550409   17.461455   21.275674 O.3        1 MOL1        -0.3740
      88    C26     25.200820   18.625861   22.676038 C.3        1 MOL1         0.1003
      89    H42     26.241068   18.974998   22.641117 H          1 MOL1         0.0783
      90    O22     25.027921   17.819009   23.849916 O.3        1 MOL1        -0.5519
      91    H43     24.074529   17.552644   23.877084 H          1 MOL1         0.3769
      92    C27     24.284985   19.870836   22.730820 C.3        1 MOL1         0.1053
      93    H44     23.244268   19.528763   22.794122 H          1 MOL1         0.0783
      94    O23     24.606715   20.652099   23.885560 O.3        1 MOL1        -0.5519
      95    H45     24.723296   19.999731   24.611965 H          1 MOL1         0.3769
      96    C28     24.445276   20.727474   21.450551 C.3        1 MOL1         0.1018
      97    H46     25.407964   21.252791   21.505425 H          1 MOL1         0.0783
      98    C29     24.380408   19.878645   20.150042 C.3        1 MOL1         0.1043
      99    H47     23.342262   19.555156   19.998986 H          1 MOL1         0.0783
     100    O24     25.239122   18.717149   20.269368 O.3        1 MOL1        -0.3740
     101    C30     24.817557   20.658690   18.890210 C.3        1 MOL1         0.0138
     102    H48     24.119968   21.489503   18.722780 H          1 MOL1         0.0794
     103    H49     24.746635   19.992727   18.019871 H          1 MOL1         0.0794
     104    O25     26.152118   21.155600   19.027957 O.3        1 MOL1        -0.5486
     105    H50     26.720438   20.372349   19.200971 H          1 MOL1         0.3769
     106    C31     21.026645   14.172547   21.795158 C.3        1 MOL1         0.2972
     107    H51     20.617152   13.190108   22.060614 H          1 MOL1         0.0751
     108    O26     20.138326   14.899554   20.919409 O.3        1 MOL1        -0.3740
     109    C32     21.294396   15.017232   23.071964 C.3        1 MOL1         0.1003
     110    H52     22.009889   14.454379   23.685607 H          1 MOL1         0.0783
     111    O27     20.100877   15.246826   23.837840 O.3        1 MOL1        -0.5519
     112    H53     19.493479   14.489578   23.661884 H          1 MOL1         0.3769
     113    C33     21.937480   16.372070   22.703666 C.3        1 MOL1         0.1053
     114    H54     21.204217   16.941203   22.122731 H          1 MOL1         0.0783
     115    O28     22.256222   17.074512   23.908417 O.3        1 MOL1        -0.5519
     116    H55     21.473800   16.926448   24.486211 H          1 MOL1         0.3769
     117    C34     23.195900   16.174912   21.824613 C.3        1 MOL1         0.1018
     118    H56     23.998379   15.761238   22.449759 H          1 MOL1         0.0783
     119    C35     22.916953   15.218738   20.631792 C.3        1 MOL1         0.1043
     120    H57     22.245303   15.727619   19.927487 H          1 MOL1         0.0783
     121    O29     22.288823   14.004374   21.112907 O.3        1 MOL1        -0.3740
     122    C36     24.192149   14.814143   19.858604 C.3        1 MOL1         0.0138
     123    H58     24.623061   15.707461   19.387159 H          1 MOL1         0.0794
     124    H59     23.912287   14.122667   19.052550 H          1 MOL1         0.0794
     125    O30     25.152160   14.203652   20.726153 O.3        1 MOL1        -0.5486
     126    H60     24.704406   13.426722   21.129153 H          1 MOL1         0.3769
     127    N1      19.942716   20.949045   26.594535 N.4        1 MOL1        -0.4857
     128    H1      20.954493   20.797792   26.723872 H          1 MOL1         0.3650
     129    H2      19.511181   20.674961   27.490661 H          1 MOL1         0.3650
     130    C1      19.416345   20.054783   25.485112 C.3        1 MOL1         0.0209
     131    H3      18.353418   20.275037   25.353756 H          1 MOL1         0.0967
     132    H4      19.508096   19.019036   25.821852 H          1 MOL1         0.0967
     133    C2      20.151541   20.215083   24.141199 C.3        1 MOL1        -0.1378
     134    H5      20.098939   21.262339   23.827299 H          1 MOL1         0.0993
     135    H6      21.212824   19.958635   24.260034 H          1 MOL1         0.0993
     136    C3      19.511107   19.338702   23.048548 C.3        1 MOL1        -0.1338
     137    H7      18.451588   19.602966   22.970934 H          1 MOL1         0.0993
     138    H8      19.554613   18.280275   23.341190 H          1 MOL1         0.0993
     139    C4      20.180743   19.539069   21.672840 C.3        1 MOL1        -0.1338
     140    H9      20.169040   20.604104   21.414499 H          1 MOL1         0.0993
     141    H10     21.235492   19.240201   21.726013 H          1 MOL1         0.0993
     142    C5      19.463461   18.735637   20.566694 C.3        1 MOL1        -0.1313
     143    H11     18.421089   19.071485   20.478031 H          1 MOL1         0.0993
     144    H12     19.427430   17.674077   20.845043 H          1 MOL1         0.0993
     145    C6      20.167555   18.890234   19.202952 C.3        1 MOL1        -0.2328
     146    H13     19.637166   18.323424   18.427198 H          1 MOL1         0.1004
     147    H14     21.199281   18.518045   19.248210 H          1 MOL1         0.1004
     148    H15     20.193579   19.942820   18.889152 H          1 MOL1         0.1004
     149    C7      19.646456   22.417306   26.305685 C.3        1 MOL1        -0.0781
     150    H16     19.987161   23.023513   27.147755 H          1 MOL1         0.0978
     151    H17     20.172489   22.723192   25.399100 H          1 MOL1         0.0978
     152    H18     18.570723   22.547778   26.168420 H          1 MOL1         0.0978
@<TRIPOS>BOND
    1     1     2    1
    2     1     3    1
    3     1     4    1
    4     4     5    1
    5     4     6    1
    6     6     7    1
    7     4     8    1
    8     8     9    1
    9     8    10    1
   10    10    11    1
   11     8    12    1
   12    12    13    1
   13    12    14    1
   14    14    15    1
   15     1    16    1
   16    14    16    1
   17    14    17    1
   18    17    18    1
   19    17    19    1
   20    17    20    1
   21    20    21    1
   22    22    23    1
   23    22    24    1
   24    22    25    1
   25    25    26    1
   26    25    27    1
   27    27    28    1
   28    25    29    1
   29    29    30    1
   30    29    31    1
   31    31    32    1
   32     3    33    1
   33    29    33    1
   34    33    34    1
   35    33    35    1
   36    35    36    1
   37    22    37    1
   38    35    37    1
   39    35    38    1
   40    38    39    1
   41    38    40    1
   42    38    41    1
   43    41    42    1
   44    43    44    1
   45    43    45    1
   46    43    46    1
   47    46    47    1
   48    46    48    1
   49    48    49    1
   50    46    50    1
   51    50    51    1
   52    50    52    1
   53    52    53    1
   54    24    54    1
   55    50    54    1
   56    54    55    1
   57    54    56    1
   58    56    57    1
   59    43    58    1
   60    56    58    1
   61    56    59    1
   62    59    60    1
   63    59    61    1
   64    59    62    1
   65    62    63    1
   66    64    65    1
   67    64    66    1
   68    64    67    1
   69    67    68    1
   70    67    69    1
   71    69    70    1
   72    67    71    1
   73    71    72    1
   74    71    73    1
   75    73    74    1
   76    45    75    1
   77    71    75    1
   78    75    76    1
   79    75    77    1
   80    77    78    1
   81    64    79    1
   82    77    79    1
   83    77    80    1
   84    80    81    1
   85    80    82    1
   86    80    83    1
   87    83    84    1
   88    85    86    1
   89    85    87    1
   90    85    88    1
   91    88    89    1
   92    88    90    1
   93    90    91    1
   94    88    92    1
   95    92    93    1
   96    92    94    1
   97    94    95    1
   98    66    96    1
   99    92    96    1
  100    96    97    1
  101    96    98    1
  102    98    99    1
  103    85   100    1
  104    98   100    1
  105    98   101    1
  106   101   102    1
  107   101   103    1
  108   101   104    1
  109   104   105    1
  110   106   107    1
  111    12   108    1
  112   106   108    1
  113   106   109    1
  114   109   110    1
  115   109   111    1
  116   111   112    1
  117   109   113    1
  118   113   114    1
  119   113   115    1
  120   115   116    1
  121    87   117    1
  122   113   117    1
  123   117   118    1
  124   117   119    1
  125   119   120    1
  126   106   121    1
  127   119   121    1
  128   119   122    1
  129   122   123    1
  130   122   124    1
  131   122   125    1
  132   125   126    1
  133   127   128    1
  134   127   129    1
  135   127   130    1
  136   130   131    1
  137   130   132    1
  138   130   133    1
  139   133   134    1
  140   133   135    1
  141   133   136    1
  142   136   137    1
  143   136   138    1
  144   136   139    1
  145   139   140    1
  146   139   141    1
  147   139   142    1
  148   142   143    1
  149   142   144    1
  150   142   145    1
  151   145   146    1
  152   145   147    1
  153   145   148    1
  154   127   149    1
  155   149   150    1
  156   149   151    1
  157   149   152    1
@<TRIPOS>SUBSTRUCTURE
       1 MOL1            1 RESIDUE      1      MOL     
       2 MOL1          152 RESIDUE      1      MOL     
@<SCITEGIC>MOL_PROPERTY
VM2 Rank
SciTegic.value.IntegerValue
2

@<SCITEGIC>MOL_PROPERTY
Conf_Id
SciTegic.value.IntegerValue
15458

@<SCITEGIC>MOL_PROPERTY
Probability
SciTegic.value.DoubleValue
1.66

@<SCITEGIC>MOL_PROPERTY
Sum Probability
SciTegic.value.DoubleValue
3.83

@<SCITEGIC>MOL_PROPERTY
Delta G
SciTegic.value.DoubleValue
0.158

@<SCITEGIC>MOL_PROPERTY
G
SciTegic.value.DoubleValue
596.132

@<SCITEGIC>MOL_PROPERTY
E
SciTegic.value.DoubleValue
393.390

@<SCITEGIC>MOL_PROPERTY
-TS
SciTegic.value.DoubleValue
202.743

@<SCITEGIC>MOL_PROPERTY
U+W
SciTegic.value.DoubleValue
259.253

@<SCITEGIC>MOL_PROPERTY
U
SciTegic.value.DoubleValue
338.082

@<SCITEGIC>MOL_PROPERTY
W
SciTegic.value.DoubleValue
-78.821

@<SCITEGIC>MOL_PROPERTY
W(PB)
SciTegic.value.DoubleValue
-84.970

@<SCITEGIC>MOL_PROPERTY
W(SA)
SciTegic.value.DoubleValue
6.148

@<SCITEGIC>MOL_PROPERTY
Valence
SciTegic.value.DoubleValue
146.580

@<SCITEGIC>MOL_PROPERTY
Coulomb
SciTegic.value.DoubleValue
218.887

@<SCITEGIC>MOL_PROPERTY
VdW
SciTegic.value.DoubleValue
-27.385

@<SCITEGIC>MOL_PROPERTY
VdW6
SciTegic.value.DoubleValue
-181.162

@<SCITEGIC>MOL_PROPERTY
VdW12
SciTegic.value.DoubleValue
153.778

@<SCITEGIC>MOL_PROPERTY
Bond
SciTegic.value.DoubleValue
4.503

@<SCITEGIC>MOL_PROPERTY
Angle
SciTegic.value.DoubleValue
10.360

@<SCITEGIC>MOL_PROPERTY
Pdih
SciTegic.value.DoubleValue
131.717

@<SCITEGIC>MOL_PROPERTY
Idih
SciTegic.value.DoubleValue
0.000

@<SCITEGIC>MOL_PROPERTY
Tether
SciTegic.value.DoubleValue
0.000

@<TRIPOS>MOLECULE
CD_guest-s12_vm2_single.mol2 : vm2 host+ligand conformer 3
         152         157           2
SMALL
USER_CHARGES
 
@<TRIPOS>ATOM
       1    C1      16.273777   15.113635   20.610935 C.3        1 MOL1         0.2972
       2    H1      15.247196   14.925510   20.271275 H          1 MOL1         0.0751
       3    O1      16.463621   16.480513   21.030610 O.3        1 MOL1        -0.3740
       4    C2      16.625972   14.202858   21.812116 C.3        1 MOL1         0.1003
       5    H2      16.530536   13.162237   21.475727 H          1 MOL1         0.0783
       6    O2      15.728559   14.427919   22.911520 O.3        1 MOL1        -0.5519
       7    H3      15.572922   15.404408   22.974935 H          1 MOL1         0.3769
       8    C3      18.090335   14.428668   22.259914 C.3        1 MOL1         0.1053
       9    H4      18.160006   15.443803   22.667426 H          1 MOL1         0.0783
      10    O3      18.410372   13.474876   23.278506 O.3        1 MOL1        -0.5519
      11    H5      17.591624   13.403681   23.820559 H          1 MOL1         0.3769
      12    C4      19.077984   14.328850   21.062373 C.3        1 MOL1         0.1018
      13    H6      19.200868   13.278838   20.765127 H          1 MOL1         0.0783
      14    C5      18.591719   15.144978   19.835492 C.3        1 MOL1         0.1043
      15    H7      18.692236   16.215133   20.056297 H          1 MOL1         0.0783
      16    O4      17.210300   14.820244   19.553923 O.3        1 MOL1        -0.3740
      17    C6      19.414165   14.836520   18.567679 C.3        1 MOL1         0.0138
      18    H8      19.261310   13.787494   18.280713 H          1 MOL1         0.0794
      19    H9      20.481627   14.970726   18.786544 H          1 MOL1         0.0794
      20    O5      19.022027   15.711395   17.508258 O.3        1 MOL1        -0.5486
      21    H10     18.054074   15.587189   17.396766 H          1 MOL1         0.3769
      22    C7      14.690729   20.219761   20.934311 C.3        1 MOL1         0.2972
      23    H11     14.027133   21.087456   20.825516 H          1 MOL1         0.0751
      24    O6      16.065721   20.624861   21.108480 O.3        1 MOL1        -0.3740
      25    C8      14.250525   19.319906   22.121178 C.3        1 MOL1         0.1003
      26    H12     13.251983   18.932752   21.879818 H          1 MOL1         0.0783
      27    O7      14.174405   20.047085   23.355668 O.3        1 MOL1        -0.5519
      28    H13     15.088293   20.369317   23.559258 H          1 MOL1         0.3769
      29    C9      15.208423   18.112848   22.254285 C.3        1 MOL1         0.1053
      30    H14     16.202351   18.495849   22.513398 H          1 MOL1         0.0783
      31    O8      14.744560   17.235628   23.285625 O.3        1 MOL1        -0.5519
      32    H15     14.451833   17.827827   24.013604 H          1 MOL1         0.3769
      33    C10     15.316384   17.342908   20.915429 C.3        1 MOL1         0.1018
      34    H16     14.387347   16.775189   20.773242 H          1 MOL1         0.0783
      35    C11     15.550169   18.283129   19.698446 C.3        1 MOL1         0.1043
      36    H17     16.582704   18.654606   19.740056 H          1 MOL1         0.0783
      37    O9      14.627388   19.401218   19.747022 O.3        1 MOL1        -0.3740
      38    C12     15.357965   17.581419   18.335639 C.3        1 MOL1         0.0138
      39    H18     16.115034   16.794972   18.226369 H          1 MOL1         0.0794
      40    H19     15.530599   18.312641   17.534661 H          1 MOL1         0.0794
      41    O10     14.045881   17.022320   18.222793 O.3        1 MOL1        -0.5486
      42    H20     13.417672   17.767438   18.351217 H          1 MOL1         0.3769
      43    C13     18.508663   23.807695   22.133533 C.3        1 MOL1         0.2972
      44    H21     18.933661   24.758491   22.478995 H          1 MOL1         0.0751
      45    O11     19.470865   23.032350   21.388221 O.3        1 MOL1        -0.3740
      46    C14     18.006298   22.966607   23.336017 C.3        1 MOL1         0.1003
      47    H22     17.230688   23.555653   23.842705 H          1 MOL1         0.0783
      48    O12     19.060002   22.672155   24.267627 O.3        1 MOL1        -0.5519
      49    H23     19.759227   23.357292   24.139442 H          1 MOL1         0.3769
      50    C15     17.371443   21.647807   22.845629 C.3        1 MOL1         0.1053
      51    H24     18.168530   21.048196   22.392918 H          1 MOL1         0.0783
      52    O13     16.820792   20.958793   23.971278 O.3        1 MOL1        -0.5519
      53    H25     17.493416   21.079612   24.678666 H          1 MOL1         0.3769
      54    C16     16.291993   21.890160   21.762504 C.3        1 MOL1         0.1018
      55    H26     15.383784   22.272899   22.246889 H          1 MOL1         0.0783
      56    C17     16.771781   22.885044   20.667706 C.3        1 MOL1         0.1043
      57    H27     17.517248   22.375642   20.042457 H          1 MOL1         0.0783
      58    O14     17.371969   24.055612   21.277850 O.3        1 MOL1        -0.3740
      59    C18     15.634121   23.365917   19.739599 C.3        1 MOL1         0.0138
      60    H28     15.241670   22.506284   19.180165 H          1 MOL1         0.0794
      61    H29     16.049629   24.070315   19.006584 H          1 MOL1         0.0794
      62    O15     14.584628   23.987886   20.486762 O.3        1 MOL1        -0.5486
      63    H30     14.999978   24.729797   20.980391 H          1 MOL1         0.3769
      64    C19     23.584309   22.855284   20.896404 C.3        1 MOL1         0.2972
      65    H31     24.640141   23.036259   20.657984 H          1 MOL1         0.0751
      66    O16     23.332808   21.475442   21.238791 O.3        1 MOL1        -0.3740
      67    C20     23.137937   23.731040   22.091278 C.3        1 MOL1         0.1003
      68    H32     23.254557   24.779918   21.788703 H          1 MOL1         0.0783
      69    O17     23.950289   23.487044   23.250128 O.3        1 MOL1        -0.5519
      70    H33     24.107330   22.510056   23.304272 H          1 MOL1         0.3769
      71    C21     21.642640   23.494034   22.414980 C.3        1 MOL1         0.1053
      72    H34     21.533639   22.466422   22.788752 H          1 MOL1         0.0783
      73    O18     21.250382   24.424064   23.430645 O.3        1 MOL1        -0.5519
      74    H35     22.018098   24.459003   24.046646 H          1 MOL1         0.3769
      75    C22     20.754365   23.645071   21.144831 C.3        1 MOL1         0.1018
      76    H36     20.644235   24.708861   20.895485 H          1 MOL1         0.0783
      77    C23     21.346085   22.903726   19.914769 C.3        1 MOL1         0.1043
      78    H37     21.216201   21.825284   20.054114 H          1 MOL1         0.0783
      79    O19     22.752107   23.216382   19.775281 O.3        1 MOL1        -0.3740
      80    C24     20.643257   23.301419   18.600990 C.3        1 MOL1         0.0138
      81    H38     20.817790   24.367431   18.402751 H          1 MOL1         0.0794
      82    H39     19.560577   23.154291   18.711344 H          1 MOL1         0.0794
      83    O20     21.136250   22.501191   17.524501 O.3        1 MOL1        -0.5486
      84    H40     22.110822   22.626004   17.517547 H          1 MOL1         0.3769
      85    C25     25.089891   17.715961   21.290479 C.3        1 MOL1         0.2972
      86    H41     25.763617   16.851790   21.223733 H          1 MOL1         0.0751
      87    O21     23.712598   17.304609   21.417211 O.3        1 MOL1        -0.3740
      88    C26     25.466216   18.629474   22.487229 C.3        1 MOL1         0.1003
      89    H42     26.477432   19.011365   22.295271 H          1 MOL1         0.0783
      90    O22     25.475154   17.913130   23.730660 O.3        1 MOL1        -0.5519
      91    H43     24.561134   17.558479   23.871574 H          1 MOL1         0.3769
      92    C27     24.507498   19.842651   22.557756 C.3        1 MOL1         0.1053
      93    H44     23.496920   19.474316   22.781028 H          1 MOL1         0.0783
      94    O23     24.939585   20.729440   23.593882 O.3        1 MOL1        -0.5519
      95    H45     25.160519   20.146458   24.354476 H          1 MOL1         0.3769
      96    C28     24.471276   20.593273   21.202540 C.3        1 MOL1         0.1018
      97    H46     25.414771   21.143696   21.091216 H          1 MOL1         0.0783
      98    C29     24.283464   19.634816   19.992918 C.3        1 MOL1         0.1043
      99    H47     23.251336   19.262628   19.998863 H          1 MOL1         0.0783
     100    O24     25.202367   18.518096   20.095269 O.3        1 MOL1        -0.3740
     101    C30     24.526918   20.319369   18.629717 C.3        1 MOL1         0.0138
     102    H48     23.782686   21.113714   18.489620 H          1 MOL1         0.0794
     103    H49     24.371389   19.581769   17.831108 H          1 MOL1         0.0794
     104    O25     25.848303   20.862453   18.553546 O.3        1 MOL1        -0.5486
     105    H50     26.463013   20.113100   18.717764 H          1 MOL1         0.3769
     106    C31     21.253881   14.075884   22.175046 C.3        1 MOL1         0.2972
     107    H51     20.799748   13.113583   22.443369 H          1 MOL1         0.0751
     108    O26     20.336901   14.916301   21.444667 O.3        1 MOL1        -0.3740
     109    C32     21.717569   14.832533   23.445310 C.3        1 MOL1         0.1003
     110    H52     22.480691   14.212205   23.933203 H          1 MOL1         0.0783
     111    O27     20.634062   15.054145   24.362543 O.3        1 MOL1        -0.5519
     112    H53     19.921003   14.414384   24.124622 H          1 MOL1         0.3769
     113    C33     22.362955   16.181485   23.058316 C.3        1 MOL1         0.1053
     114    H54     21.582390   16.809881   22.616911 H          1 MOL1         0.0783
     115    O28     22.872724   16.802889   24.240362 O.3        1 MOL1        -0.5519
     116    H55     22.181667   16.629863   24.919188 H          1 MOL1         0.3769
     117    C34     23.480000   16.005652   21.999342 C.3        1 MOL1         0.1018
     118    H56     24.375827   15.609757   22.496212 H          1 MOL1         0.0783
     119    C35     23.054005   15.064551   20.835718 C.3        1 MOL1         0.1043
     120    H57     22.340797   15.606966   20.201002 H          1 MOL1         0.0783
     121    O29     22.422853   13.866008   21.353992 O.3        1 MOL1        -0.3740
     122    C36     24.234538   14.627587   19.940063 C.3        1 MOL1         0.0138
     123    H58     24.652948   15.512596   19.442445 H          1 MOL1         0.0794
     124    H59     23.854483   13.960771   19.154538 H          1 MOL1         0.0794
     125    O30     25.247272   13.967435   20.704909 O.3        1 MOL1        -0.5486
     126    H60     24.809354   13.202187   21.139918 H          1 MOL1         0.3769
     127    N1      17.991828   17.317987   26.912181 N.4        1 MOL1        -0.4857
     128    H1      17.015442   17.593337   26.726922 H          1 MOL1         0.3650
     129    H2      18.163719   17.572974   27.896966 H          1 MOL1         0.3650
     130    C1      18.935456   18.097876   26.012599 C.3        1 MOL1         0.0209
     131    H3      19.952064   17.751332   26.214674 H          1 MOL1         0.0967
     132    H4      18.869421   19.151050   26.297196 H          1 MOL1         0.0967
     133    C2      18.629320   17.959996   24.510193 C.3        1 MOL1        -0.1378
     134    H5      18.683861   16.904287   24.226780 H          1 MOL1         0.0993
     135    H6      17.603137   18.292814   24.312626 H          1 MOL1         0.0993
     136    C3      19.622303   18.765891   23.647930 C.3        1 MOL1        -0.1338
     137    H7      20.648924   18.481162   23.911568 H          1 MOL1         0.0993
     138    H8      19.531429   19.835675   23.878707 H          1 MOL1         0.0993
     139    C4      19.387600   18.524676   22.139329 C.3        1 MOL1        -0.1338
     140    H9      19.467491   17.452414   21.921914 H          1 MOL1         0.0993
     141    H10     18.366225   18.821107   21.868472 H          1 MOL1         0.0993
     142    C5      20.398426   19.302275   21.271979 C.3        1 MOL1        -0.1313
     143    H11     21.420623   18.988235   21.521618 H          1 MOL1         0.0993
     144    H12     20.332061   20.372142   21.508323 H          1 MOL1         0.0993
     145    C6      20.144294   19.084156   19.765032 C.3        1 MOL1        -0.2328
     146    H13     20.863480   19.651299   19.160303 H          1 MOL1         0.1004
     147    H14     19.136173   19.415493   19.483853 H          1 MOL1         0.1004
     148    H15     20.244254   18.024325   19.496446 H          1 MOL1         0.1004
     149    C7      18.175406   15.815215   26.725135 C.3        1 MOL1        -0.0781
     150    H16     17.908643   15.542453   25.702014 H          1 MOL1         0.0978
     151    H17     19.219524   15.555004   26.913666 H          1 MOL1         0.0978
     152    H18     17.528288   15.284951   27.427085 H          1 MOL1         0.0978
@<TRIPOS>BOND
    1     1     2    1
    2     1     3    1
    3     1     4    1
    4     4     5    1
    5     4     6    1
    6     6     7    1
    7     4     8    1
    8     8     9    1
    9     8    10    1
   10    10    11    1
   11     8    12    1
   12    12    13    1
   13    12    14    1
   14    14    15    1
   15     1    16    1
   16    14    16    1
   17    14    17    1
   18    17    18    1
   19    17    19    1
   20    17    20    1
   21    20    21    1
   22    22    23    1
   23    22    24    1
   24    22    25    1
   25    25    26    1
   26    25    27    1
   27    27    28    1
   28    25    29    1
   29    29    30    1
   30    29    31    1
   31    31    32    1
   32     3    33    1
   33    29    33    1
   34    33    34    1
   35    33    35    1
   36    35    36    1
   37    22    37    1
   38    35    37    1
   39    35    38    1
   40    38    39    1
   41    38    40    1
   42    38    41    1
   43    41    42    1
   44    43    44    1
   45    43    45    1
   46    43    46    1
   47    46    47    1
   48    46    48    1
   49    48    49    1
   50    46    50    1
   51    50    51    1
   52    50    52    1
   53    52    53    1
   54    24    54    1
   55    50    54    1
   56    54    55    1
   57    54    56    1
   58    56    57    1
   59    43    58    1
   60    56    58    1
   61    56    59    1
   62    59    60    1
   63    59    61    1
   64    59    62    1
   65    62    63    1
   66    64    65    1
   67    64    66    1
   68    64    67    1
   69    67    68    1
   70    67    69    1
   71    69    70    1
   72    67    71    1
   73    71    72    1
   74    71    73    1
   75    73    74    1
   76    45    75    1
   77    71    75    1
   78    75    76    1
   79    75    77    1
   80    77    78    1
   81    64    79    1
   82    77    79    1
   83    77    80    1
   84    80    81    1
   85    80    82    1
   86    80    83    1
   87    83    84    1
   88    85    86    1
   89    85    87    1
   90    85    88    1
   91    88    89    1
   92    88    90    1
   93    90    91    1
   94    88    92    1
   95    92    93    1
   96    92    94    1
   97    94    95    1
   98    66    96    1
   99    92    96    1
  100    96    97    1
  101    96    98    1
  102    98    99    1
  103    85   100    1
  104    98   100    1
  105    98   101    1
  106   101   102    1
  107   101   103    1
  108   101   104    1
  109   104   105    1
  110   106   107    1
  111    12   108    1
  112   106   108    1
  113   106   109    1
  114   109   110    1
  115   109   111    1
  116   111   112    1
  117   109   113    1
  118   113   114    1
  119   113   115    1
  120   115   116    1
  121    87   117    1
  122   113   117    1
  123   117   118    1
  124   117   119    1
  125   119   120    1
  126   106   121    1
  127   119   121    1
  128   119   122    1
  129   122   123    1
  130   122   124    1
  131   122   125    1
  132   125   126    1
  133   127   128    1
  134   127   129    1
  135   127   130    1
  136   130   131    1
  137   130   132    1
  138   130   133    1
  139   133   134    1
  140   133   135    1
  141   133   136    1
  142   136   137    1
  143   136   138    1
  144   136   139    1
  145   139   140    1
  146   139   141    1
  147   139   142    1
  148   142   143    1
  149   142   144    1
  150   142   145    1
  151   145   146    1
  152   145   147    1
  153   145   148    1
  154   127   149    1
  155   149   150    1
  156   149   151    1
  157   149   152    1
@<TRIPOS>SUBSTRUCTURE
       1 MOL1            1 RESIDUE      1      MOL     
       2 MOL1          152 RESIDUE      1      MOL     
@<SCITEGIC>MOL_PROPERTY
VM2 Rank
SciTegic.value.IntegerValue
3

@<SCITEGIC>MOL_PROPERTY
Conf_Id
SciTegic.value.IntegerValue
26051

@<SCITEGIC>MOL_PROPERTY
Probability
SciTegic.value.DoubleValue
1.23

@<SCITEGIC>MOL_PROPERTY
Sum Probability
SciTegic.value.DoubleValue
5.06

@<SCITEGIC>MOL_PROPERTY
Delta G
SciTegic.value.DoubleValue
0.338

@<SCITEGIC>MOL_PROPERTY
G
SciTegic.value.DoubleValue
596.312

@<SCITEGIC>MOL_PROPERTY
E
SciTegic.value.DoubleValue
393.739

@<SCITEGIC>MOL_PROPERTY
-TS
SciTegic.value.DoubleValue
202.573

@<SCITEGIC>MOL_PROPERTY
U+W
SciTegic.value.DoubleValue
259.603

@<SCITEGIC>MOL_PROPERTY
U
SciTegic.value.DoubleValue
338.008

@<SCITEGIC>MOL_PROPERTY
W
SciTegic.value.DoubleValue
-78.396

@<SCITEGIC>MOL_PROPERTY
W(PB)
SciTegic.value.DoubleValue
-84.657

@<SCITEGIC>MOL_PROPERTY
W(SA)
SciTegic.value.DoubleValue
6.261

@<SCITEGIC>MOL_PROPERTY
Valence
SciTegic.value.DoubleValue
146.015

@<SCITEGIC>MOL_PROPERTY
Coulomb
SciTegic.value.DoubleValue
217.338

@<SCITEGIC>MOL_PROPERTY
VdW
SciTegic.value.DoubleValue
-25.345

@<SCITEGIC>MOL_PROPERTY
VdW6
SciTegic.value.DoubleValue
-177.103

@<SCITEGIC>MOL_PROPERTY
VdW12
SciTegic.value.DoubleValue
151.759

@<SCITEGIC>MOL_PROPERTY
Bond
SciTegic.value.DoubleValue
4.432

@<SCITEGIC>MOL_PROPERTY
Angle
SciTegic.value.DoubleValue
9.784

@<SCITEGIC>MOL_PROPERTY
Pdih
SciTegic.value.DoubleValue
131.799

@<SCITEGIC>MOL_PROPERTY
Idih
SciTegic.value.DoubleValue
0.000

@<SCITEGIC>MOL_PROPERTY
Tether
SciTegic.value.DoubleValue
0.000

@<TRIPOS>MOLECULE
CD_guest-s12_vm2_single.mol2 : vm2 host+ligand conformer 4
         152         157           2
SMALL
USER_CHARGES
 
@<TRIPOS>ATOM
       1    C1      16.124223   15.024876   20.233610 C.3        1 MOL1         0.2972
       2    H1      15.079054   14.926071   19.913277 H          1 MOL1         0.0751
       3    O1      16.431128   16.379721   20.632968 O.3        1 MOL1        -0.3740
       4    C2      16.463517   14.031143   21.373587 C.3        1 MOL1         0.1003
       5    H2      16.385268   13.021348   20.949664 H          1 MOL1         0.0783
       6    O2      15.554452   14.129937   22.478986 O.3        1 MOL1        -0.5519
       7    H3      15.721102   15.007097   22.906736 H          1 MOL1         0.3769
       8    C3      17.924587   14.236391   21.838919 C.3        1 MOL1         0.1053
       9    H4      18.000301   15.236607   22.285614 H          1 MOL1         0.0783
      10    O3      18.230323   13.240193   22.821762 O.3        1 MOL1        -0.5519
      11    H5      17.403759   13.139186   23.347222 H          1 MOL1         0.3769
      12    C4      18.922136   14.170606   20.643371 C.3        1 MOL1         0.1018
      13    H6      19.094811   13.121283   20.369727 H          1 MOL1         0.0783
      14    C5      18.419468   14.939961   19.387155 C.3        1 MOL1         0.1043
      15    H7      18.574733   16.013034   19.548038 H          1 MOL1         0.0783
      16    O4      17.011833   14.680000   19.149328 O.3        1 MOL1        -0.3740
      17    C6      19.195808   14.538651   18.116527 C.3        1 MOL1         0.0138
      18    H8      18.979405   13.489538   17.874250 H          1 MOL1         0.0794
      19    H9      20.273741   14.622573   18.310214 H          1 MOL1         0.0794
      20    O5      18.828850   15.392991   17.031567 O.3        1 MOL1        -0.5486
      21    H10     17.846946   15.368928   16.985168 H          1 MOL1         0.3769
      22    C7      15.038596   19.938881   22.162126 C.3        1 MOL1         0.2972
      23    H11     14.463507   20.762787   22.603801 H          1 MOL1         0.0751
      24    O6      16.277859   20.405835   21.589528 O.3        1 MOL1        -0.3740
      25    C8      15.350889   18.873793   23.241110 C.3        1 MOL1         0.1003
      26    H12     14.387590   18.514506   23.626032 H          1 MOL1         0.0783
      27    O7      16.113074   19.432124   24.325171 O.3        1 MOL1        -0.5519
      28    H13     16.003192   20.412885   24.280054 H          1 MOL1         0.3769
      29    C9      16.104891   17.669695   22.631803 C.3        1 MOL1         0.1053
      30    H14     17.106212   18.006267   22.345221 H          1 MOL1         0.0783
      31    O8      16.212327   16.654563   23.632007 O.3        1 MOL1        -0.5519
      32    H15     16.506159   17.133951   24.439504 H          1 MOL1         0.3769
      33    C10     15.422083   17.119790   21.351345 C.3        1 MOL1         0.1018
      34    H16     14.568509   16.491075   21.636907 H          1 MOL1         0.0783
      35    C11     14.953304   18.249152   20.391018 C.3        1 MOL1         0.1043
      36    H17     15.840592   18.668356   19.899190 H          1 MOL1         0.0783
      37    O9      14.269854   19.295471   21.124302 O.3        1 MOL1        -0.3740
      38    C12     14.001620   17.747528   19.282550 C.3        1 MOL1         0.0138
      39    H18     14.537185   17.026340   18.650919 H          1 MOL1         0.0794
      40    H19     13.722678   18.597069   18.644875 H          1 MOL1         0.0794
      41    O10     12.832669   17.140731   19.840620 O.3        1 MOL1        -0.5486
      42    H20     12.419236   17.820000   20.418885 H          1 MOL1         0.3769
      43    C13     18.404680   23.999024   21.354817 C.3        1 MOL1         0.2972
      44    H21     18.681476   25.050775   21.208458 H          1 MOL1         0.0751
      45    O11     19.560950   23.162208   21.555540 O.3        1 MOL1        -0.3740
      46    C14     17.504841   23.855768   22.607269 C.3        1 MOL1         0.1003
      47    H22     16.619411   24.485470   22.450523 H          1 MOL1         0.0783
      48    O12     18.198329   24.298963   23.785409 O.3        1 MOL1        -0.5519
      49    H23     19.165204   24.160188   23.626412 H          1 MOL1         0.3769
      50    C15     17.026127   22.394445   22.785429 C.3        1 MOL1         0.1053
      51    H24     17.901952   21.785445   23.035750 H          1 MOL1         0.0783
      52    O13     16.082520   22.345816   23.860739 O.3        1 MOL1        -0.5519
      53    H25     16.447158   22.958136   24.539440 H          1 MOL1         0.3769
      54    C16     16.409616   21.836806   21.472114 C.3        1 MOL1         0.1018
      55    H26     15.436716   22.312499   21.288992 H          1 MOL1         0.0783
      56    C17     17.323608   22.102148   20.248710 C.3        1 MOL1         0.1043
      57    H27     18.227213   21.485325   20.333096 H          1 MOL1         0.0783
      58    O14     17.668083   23.507814   20.215452 O.3        1 MOL1        -0.3740
      59    C18     16.622723   21.761322   18.917052 C.3        1 MOL1         0.0138
      60    H28     15.744419   22.408689   18.791915 H          1 MOL1         0.0794
      61    H29     16.268764   20.723156   18.949794 H          1 MOL1         0.0794
      62    O15     17.530126   21.929006   17.826312 O.3        1 MOL1        -0.5486
      63    H30     17.821919   22.866288   17.856502 H          1 MOL1         0.3769
      64    C19     23.646776   22.931668   21.043320 C.3        1 MOL1         0.2972
      65    H31     24.713177   23.080342   20.830211 H          1 MOL1         0.0751
      66    O16     23.334732   21.549691   21.320163 O.3        1 MOL1        -0.3740
      67    C20     23.200673   23.778836   22.261433 C.3        1 MOL1         0.1003
      68    H32     23.328357   24.836665   21.997207 H          1 MOL1         0.0783
      69    O17     23.991307   23.484393   23.423278 O.3        1 MOL1        -0.5519
      70    H33     24.059165   22.498579   23.497606 H          1 MOL1         0.3769
      71    C21     21.701879   23.530737   22.546695 C.3        1 MOL1         0.1053
      72    H34     21.595726   22.481095   22.841469 H          1 MOL1         0.0783
      73    O18     21.256484   24.376424   23.611715 O.3        1 MOL1        -0.5519
      74    H35     21.991236   24.369222   24.265180 H          1 MOL1         0.3769
      75    C22     20.839057   23.769291   21.282477 C.3        1 MOL1         0.1018
      76    H36     20.757352   24.852221   21.121348 H          1 MOL1         0.0783
      77    C23     21.429894   23.097176   20.008777 C.3        1 MOL1         0.1043
      78    H37     21.260657   22.015338   20.071063 H          1 MOL1         0.0783
      79    O19     22.852313   23.356830   19.917057 O.3        1 MOL1        -0.3740
      80    C24     20.787723   23.597661   18.696916 C.3        1 MOL1         0.0138
      81    H38     19.722481   23.341203   18.699050 H          1 MOL1         0.0794
      82    H39     21.249012   23.067553   17.852998 H          1 MOL1         0.0794
      83    O20     20.954872   25.010250   18.546142 O.3        1 MOL1        -0.5486
      84    H40     21.922208   25.178140   18.594661 H          1 MOL1         0.3769
      85    C25     24.963544   17.747142   21.423546 C.3        1 MOL1         0.2972
      86    H41     25.613792   16.862855   21.405861 H          1 MOL1         0.0751
      87    O21     23.569910   17.376702   21.327065 O.3        1 MOL1        -0.3740
      88    C26     25.201688   18.589301   22.706733 C.3        1 MOL1         0.1003
      89    H42     26.240497   18.942621   22.670697 H          1 MOL1         0.0783
      90    O22     25.021354   17.820625   23.904792 O.3        1 MOL1        -0.5519
      91    H43     24.069806   17.547702   23.930396 H          1 MOL1         0.3769
      92    C27     24.279123   19.830628   22.709700 C.3        1 MOL1         0.1053
      93    H44     23.239544   19.485558   22.771701 H          1 MOL1         0.0783
      94    O23     24.583280   20.648242   23.843475 O.3        1 MOL1        -0.5519
      95    H45     24.696706   20.018472   24.590141 H          1 MOL1         0.3769
      96    C28     24.451928   20.646598   21.403974 C.3        1 MOL1         0.1018
      97    H46     25.410026   21.180558   21.456192 H          1 MOL1         0.0783
      98    C29     24.413973   19.755992   20.130326 C.3        1 MOL1         0.1043
      99    H47     23.379492   19.425192   19.969742 H          1 MOL1         0.0783
     100    O24     25.271801   18.600259   20.300803 O.3        1 MOL1        -0.3740
     101    C30     24.874564   20.498178   18.855876 C.3        1 MOL1         0.0138
     102    H48     24.183203   21.326588   18.652593 H          1 MOL1         0.0794
     103    H49     24.816160   19.807448   18.004110 H          1 MOL1         0.0794
     104    O25     26.208574   20.994259   19.002090 O.3        1 MOL1        -0.5486
     105    H50     26.770212   20.214517   19.209628 H          1 MOL1         0.3769
     106    C31     21.037779   14.106253   21.912681 C.3        1 MOL1         0.2972
     107    H51     20.622184   13.131661   22.196686 H          1 MOL1         0.0751
     108    O26     20.159614   14.818653   21.015409 O.3        1 MOL1        -0.3740
     109    C32     21.301769   14.978832   23.171330 C.3        1 MOL1         0.1003
     110    H52     22.014049   14.429205   23.800507 H          1 MOL1         0.0783
     111    O27     20.105405   15.227357   23.926725 O.3        1 MOL1        -0.5519
     112    H53     19.498127   14.466686   23.766168 H          1 MOL1         0.3769
     113    C33     21.947923   16.324137   22.774250 C.3        1 MOL1         0.1053
     114    H54     21.218605   16.879400   22.175556 H          1 MOL1         0.0783
     115    O28     22.258938   17.055669   23.963437 O.3        1 MOL1        -0.5519
     116    H55     21.473177   16.920791   24.539990 H          1 MOL1         0.3769
     117    C34     23.211302   16.104921   21.907301 C.3        1 MOL1         0.1018
     118    H56     24.010174   15.707043   22.547196 H          1 MOL1         0.0783
     119    C35     22.938803   15.119673   20.736611 C.3        1 MOL1         0.1043
     120    H57     22.274416   15.613153   20.014580 H          1 MOL1         0.0783
     121    O29     22.303052   13.918420   21.241300 O.3        1 MOL1        -0.3740
     122    C36     24.219248   14.693671   19.983881 C.3        1 MOL1         0.0138
     123    H58     24.657175   15.574729   19.496080 H          1 MOL1         0.0794
     124    H59     23.944290   13.984918   19.191299 H          1 MOL1         0.0794
     125    O30     25.169627   14.100180   20.873521 O.3        1 MOL1        -0.5486
     126    H60     24.715751   13.334360   21.290689 H          1 MOL1         0.3769
     127    N1      19.943476   21.041275   26.555492 N.4        1 MOL1        -0.4857
     128    H1      20.954599   20.888290   26.687811 H          1 MOL1         0.3650
     129    H2      19.511734   20.795554   27.459701 H          1 MOL1         0.3650
     130    C1      19.410791   20.118484   25.472845 C.3        1 MOL1         0.0209
     131    H3      18.348780   20.340100   25.336301 H          1 MOL1         0.0967
     132    H4      19.497754   19.092583   25.839644 H          1 MOL1         0.0967
     133    C2      20.145053   20.235083   24.123825 C.3        1 MOL1        -0.1378
     134    H5      20.089763   21.270898   23.774179 H          1 MOL1         0.0993
     135    H6      21.206968   19.985223   24.251092 H          1 MOL1         0.0993
     136    C3      19.506466   19.318424   23.063541 C.3        1 MOL1        -0.1338
     137    H7      18.447512   19.580150   22.971346 H          1 MOL1         0.0993
     138    H8      19.547697   18.272486   23.398775 H          1 MOL1         0.0993
     139    C4      20.181395   19.459147   21.683015 C.3        1 MOL1        -0.1338
     140    H9      20.169634   20.511002   21.374317 H          1 MOL1         0.0993
     141    H10     21.235846   19.164168   21.755953 H          1 MOL1         0.0993
     142    C5      19.470608   18.600934   20.614392 C.3        1 MOL1        -0.1313
     143    H11     18.441708   18.959282   20.471848 H          1 MOL1         0.0993
     144    H12     19.393585   17.563746   20.966321 H          1 MOL1         0.0993
     145    C6      20.218131   18.631867   19.265374 C.3        1 MOL1        -0.2328
     146    H13     19.693302   18.023265   18.516967 H          1 MOL1         0.1004
     147    H14     21.234912   18.231330   19.370427 H          1 MOL1         0.1004
     148    H15     20.288137   19.656130   18.876610 H          1 MOL1         0.1004
     149    C7      19.655050   22.502016   26.224783 C.3        1 MOL1        -0.0781
     150    H16     20.001695   23.130618   27.047784 H          1 MOL1         0.0978
     151    H17     20.180346   22.777777   25.308222 H          1 MOL1         0.0978
     152    H18     18.579762   22.634901   26.086405 H          1 MOL1         0.0978
@<TRIPOS>BOND
    1     1     2    1
    2     1     3    1
    3     1     4    1
    4     4     5    1
    5     4     6    1
    6     6     7    1
    7     4     8    1
    8     8     9    1
    9     8    10    1
   10    10    11    1
   11     8    12    1
   12    12    13    1
   13    12    14    1
   14    14    15    1
   15     1    16    1
   16    14    16    1
   17    14    17    1
   18    17    18    1
   19    17    19    1
   20    17    20    1
   21    20    21    1
   22    22    23    1
   23    22    24    1
   24    22    25    1
   25    25    26    1
   26    25    27    1
   27    27    28    1
   28    25    29    1
   29    29    30    1
   30    29    31    1
   31    31    32    1
   32     3    33    1
   33    29    33    1
   34    33    34    1
   35    33    35    1
   36    35    36    1
   37    22    37    1
   38    35    37    1
   39    35    38    1
   40    38    39    1
   41    38    40    1
   42    38    41    1
   43    41    42    1
   44    43    44    1
   45    43    45    1
   46    43    46    1
   47    46    47    1
   48    46    48    1
   49    48    49    1
   50    46    50    1
   51    50    51    1
   52    50    52    1
   53    52    53    1
   54    24    54    1
   55    50    54    1
   56    54    55    1
   57    54    56    1
   58    56    57    1
   59    43    58    1
   60    56    58    1
   61    56    59    1
   62    59    60    1
   63    59    61    1
   64    59    62    1
   65    62    63    1
   66    64    65    1
   67    64    66    1
   68    64    67    1
   69    67    68    1
   70    67    69    1
   71    69    70    1
   72    67    71    1
   73    71    72    1
   74    71    73    1
   75    73    74    1
   76    45    75    1
   77    71    75    1
   78    75    76    1
   79    75    77    1
   80    77    78    1
   81    64    79    1
   82    77    79    1
   83    77    80    1
   84    80    81    1
   85    80    82    1
   86    80    83    1
   87    83    84    1
   88    85    86    1
   89    85    87    1
   90    85    88    1
   91    88    89    1
   92    88    90    1
   93    90    91    1
   94    88    92    1
   95    92    93    1
   96    92    94    1
   97    94    95    1
   98    66    96    1
   99    92    96    1
  100    96    97    1
  101    96    98    1
  102    98    99    1
  103    85   100    1
  104    98   100    1
  105    98   101    1
  106   101   102    1
  107   101   103    1
  108   101   104    1
  109   104   105    1
  110   106   107    1
  111    12   108    1
  112   106   108    1
  113   106   109    1
  114   109   110    1
  115   109   111    1
  116   111   112    1
  117   109   113    1
  118   113   114    1
  119   113   115    1
  120   115   116    1
  121    87   117    1
  122   113   117    1
  123   117   118    1
  124   117   119    1
  125   119   120    1
  126   106   121    1
  127   119   121    1
  128   119   122    1
  129   122   123    1
  130   122   124    1
  131   122   125    1
  132   125   126    1
  133   127   128    1
  134   127   129    1
  135   127   130    1
  136   130   131    1
  137   130   132    1
  138   130   133    1
  139   133   134    1
  140   133   135    1
  141   133   136    1
  142   136   137    1
  143   136   138    1
  144   136   139    1
  145   139   140    1
  146   139   141    1
  147   139   142    1
  148   142   143    1
  149   142   144    1
  150   142   145    1
  151   145   146    1
  152   145   147    1
  153   145   148    1
  154   127   149    1
  155   149   150    1
  156   149   151    1
  157   149   152    1
@<TRIPOS>SUBSTRUCTURE
       1 MOL1            1 RESIDUE      1      MOL     
       2 MOL1          152 RESIDUE      1      MOL     
@<SCITEGIC>MOL_PROPERTY
VM2 Rank
SciTegic.value.IntegerValue
4

@<SCITEGIC>MOL_PROPERTY
Conf_Id
SciTegic.value.IntegerValue
3890

@<SCITEGIC>MOL_PROPERTY
Probability
SciTegic.value.DoubleValue
1.03

@<SCITEGIC>MOL_PROPERTY
Sum Probability
SciTegic.value.DoubleValue
6.09

@<SCITEGIC>MOL_PROPERTY
Delta G
SciTegic.value.DoubleValue
0.441

@<SCITEGIC>MOL_PROPERTY
G
SciTegic.value.DoubleValue
596.415

@<SCITEGIC>MOL_PROPERTY
E
SciTegic.value.DoubleValue
392.960

@<SCITEGIC>MOL_PROPERTY
-TS
SciTegic.value.DoubleValue
203.455

@<SCITEGIC>MOL_PROPERTY
U+W
SciTegic.value.DoubleValue
258.823

@<SCITEGIC>MOL_PROPERTY
U
SciTegic.value.DoubleValue
336.626

@<SCITEGIC>MOL_PROPERTY
W
SciTegic.value.DoubleValue
-77.803

@<SCITEGIC>MOL_PROPERTY
W(PB)
SciTegic.value.DoubleValue
-83.919

@<SCITEGIC>MOL_PROPERTY
W(SA)
SciTegic.value.DoubleValue
6.117

@<SCITEGIC>MOL_PROPERTY
Valence
SciTegic.value.DoubleValue
146.504

@<SCITEGIC>MOL_PROPERTY
Coulomb
SciTegic.value.DoubleValue
217.158

@<SCITEGIC>MOL_PROPERTY
VdW
SciTegic.value.DoubleValue
-27.036

@<SCITEGIC>MOL_PROPERTY
VdW6
SciTegic.value.DoubleValue
-181.239

@<SCITEGIC>MOL_PROPERTY
VdW12
SciTegic.value.DoubleValue
154.203

@<SCITEGIC>MOL_PROPERTY
Bond
SciTegic.value.DoubleValue
4.516

@<SCITEGIC>MOL_PROPERTY
Angle
SciTegic.value.DoubleValue
10.404

@<SCITEGIC>MOL_PROPERTY
Pdih
SciTegic.value.DoubleValue
131.584

@<SCITEGIC>MOL_PROPERTY
Idih
SciTegic.value.DoubleValue
0.000

@<SCITEGIC>MOL_PROPERTY
Tether
SciTegic.value.DoubleValue
0.000

@<TRIPOS>MOLECULE
CD_guest-s12_vm2_single.mol2 : vm2 host+ligand conformer 5
         152         157           2
SMALL
USER_CHARGES
 
@<TRIPOS>ATOM
       1    C1      16.195556   15.047414   20.759589 C.3        1 MOL1         0.2972
       2    H1      15.147151   14.860799   20.495293 H          1 MOL1         0.0751
       3    O1      16.436521   16.434040   21.077289 O.3        1 MOL1        -0.3740
       4    C2      16.595242   14.197633   21.988849 C.3        1 MOL1         0.1003
       5    H2      16.474160   13.141835   21.713360 H          1 MOL1         0.0783
       6    O2      15.753052   14.491092   23.115256 O.3        1 MOL1        -0.5519
       7    H3      15.531405   15.455905   23.078400 H          1 MOL1         0.3769
       8    C3      18.079496   14.427603   22.355142 C.3        1 MOL1         0.1053
       9    H4      18.176459   15.461700   22.702392 H          1 MOL1         0.0783
      10    O3      18.433073   13.525476   23.409295 O.3        1 MOL1        -0.5519
      11    H5      17.632457   13.484946   23.980844 H          1 MOL1         0.3769
      12    C4      19.015704   14.255392   21.125713 C.3        1 MOL1         0.1018
      13    H6      19.146893   13.187691   20.905201 H          1 MOL1         0.0783
      14    C5      18.468566   14.971205   19.859239 C.3        1 MOL1         0.1043
      15    H7      18.598504   16.053741   19.988207 H          1 MOL1         0.0783
      16    O4      17.063764   14.669282   19.672986 O.3        1 MOL1        -0.3740
      17    C6      19.211524   14.561152   18.568598 C.3        1 MOL1         0.0138
      18    H8      20.278513   14.796617   18.678167 H          1 MOL1         0.0794
      19    H9      18.825064   15.160674   17.733481 H          1 MOL1         0.0794
      20    O5      19.039803   13.166970   18.298357 O.3        1 MOL1        -0.5486
      21    H10     18.069580   13.007514   18.298222 H          1 MOL1         0.3769
      22    C7      14.755050   20.227885   20.836473 C.3        1 MOL1         0.2972
      23    H11     14.102333   21.093658   20.665094 H          1 MOL1         0.0751
      24    O6      16.106178   20.636332   21.132048 O.3        1 MOL1        -0.3740
      25    C8      14.212273   19.334398   21.985654 C.3        1 MOL1         0.1003
      26    H12     13.223075   18.974545   21.674022 H          1 MOL1         0.0783
      27    O7      14.072257   20.060107   23.215983 O.3        1 MOL1        -0.5519
      28    H13     14.976062   20.371673   23.475020 H          1 MOL1         0.3769
      29    C9      15.124635   18.101364   22.186317 C.3        1 MOL1         0.1053
      30    H14     16.099007   18.456806   22.542568 H          1 MOL1         0.0783
      31    O8      14.545238   17.224982   23.157611 O.3        1 MOL1        -0.5519
      32    H15     14.213193   17.815025   23.870556 H          1 MOL1         0.3769
      33    C10     15.341917   17.343040   20.853450 C.3        1 MOL1         0.1018
      34    H16     14.413096   16.818513   20.592862 H          1 MOL1         0.0783
      35    C11     15.737200   18.294515   19.691797 C.3        1 MOL1         0.1043
      36    H17     16.760309   18.654511   19.860676 H          1 MOL1         0.0783
      37    O9      14.806633   19.406677   19.650438 O.3        1 MOL1        -0.3740
      38    C12     15.689838   17.605628   18.312376 C.3        1 MOL1         0.0138
      39    H18     14.661288   17.283861   18.101189 H          1 MOL1         0.0794
      40    H19     16.325014   16.711671   18.326717 H          1 MOL1         0.0794
      41    O10     16.152182   18.506928   17.305001 O.3        1 MOL1        -0.5486
      42    H20     15.639438   19.337027   17.427422 H          1 MOL1         0.3769
      43    C13     18.460144   23.832858   22.257499 C.3        1 MOL1         0.2972
      44    H21     18.877894   24.780612   22.620401 H          1 MOL1         0.0751
      45    O11     19.442942   23.054498   21.543729 O.3        1 MOL1        -0.3740
      46    C14     17.913201   22.992580   23.440483 C.3        1 MOL1         0.1003
      47    H22     17.119882   23.581376   23.919216 H          1 MOL1         0.0783
      48    O12     18.934262   22.697622   24.407703 O.3        1 MOL1        -0.5519
      49    H23     19.668945   23.340981   24.260171 H          1 MOL1         0.3769
      50    C15     17.297484   21.674004   22.926600 C.3        1 MOL1         0.1053
      51    H24     18.115206   21.073168   22.515304 H          1 MOL1         0.0783
      52    O13     16.689748   20.985572   24.023534 O.3        1 MOL1        -0.5519
      53    H25     17.329956   21.095900   24.761847 H          1 MOL1         0.3769
      54    C16     16.271801   21.907380   21.791366 C.3        1 MOL1         0.1018
      55    H26     15.333637   22.271169   22.231073 H          1 MOL1         0.0783
      56    C17     16.786090   22.912974   20.721683 C.3        1 MOL1         0.1043
      57    H27     17.557409   22.411407   20.122089 H          1 MOL1         0.0783
      58    O14     17.355661   24.083205   21.361777 O.3        1 MOL1        -0.3740
      59    C18     15.684313   23.393917   19.751389 C.3        1 MOL1         0.0138
      60    H28     15.325930   22.537884   19.164502 H          1 MOL1         0.0794
      61    H29     16.123641   24.111651   19.045690 H          1 MOL1         0.0794
      62    O15     14.596907   23.995895   20.459475 O.3        1 MOL1        -0.5486
      63    H30     14.981771   24.737460   20.977677 H          1 MOL1         0.3769
      64    C19     23.546433   22.910740   21.007857 C.3        1 MOL1         0.2972
      65    H31     24.600717   23.105813   20.773922 H          1 MOL1         0.0751
      66    O16     23.299478   21.515587   21.283495 O.3        1 MOL1        -0.3740
      67    C20     23.106764   23.724329   22.248772 C.3        1 MOL1         0.1003
      68    H32     23.225596   24.787401   22.001775 H          1 MOL1         0.0783
      69    O17     23.923342   23.414962   23.389044 O.3        1 MOL1        -0.5519
      70    H33     24.101399   22.440298   23.372094 H          1 MOL1         0.3769
      71    C21     21.612344   23.474738   22.567112 C.3        1 MOL1         0.1053
      72    H34     21.503987   22.431735   22.895719 H          1 MOL1         0.0783
      73    O18     21.218431   24.358443   23.622489 O.3        1 MOL1        -0.5519
      74    H35     21.980431   24.357834   24.246271 H          1 MOL1         0.3769
      75    C22     20.719469   23.681507   21.309832 C.3        1 MOL1         0.1018
      76    H36     20.605724   24.755028   21.108105 H          1 MOL1         0.0783
      77    C23     21.302956   22.997094   20.044016 C.3        1 MOL1         0.1043
      78    H37     21.177102   21.912692   20.135369 H          1 MOL1         0.0783
      79    O19     22.706509   23.322902   19.910504 O.3        1 MOL1        -0.3740
      80    C24     20.589775   23.452400   18.754771 C.3        1 MOL1         0.0138
      81    H38     20.757709   24.527459   18.605782 H          1 MOL1         0.0794
      82    H39     19.508644   23.294765   18.864817 H          1 MOL1         0.0794
      83    O20     21.079637   22.706483   17.638622 O.3        1 MOL1        -0.5486
      84    H40     22.052524   22.843189   17.626407 H          1 MOL1         0.3769
      85    C25     25.024862   17.747295   21.072355 C.3        1 MOL1         0.2972
      86    H41     25.688904   16.884030   20.934938 H          1 MOL1         0.0751
      87    O21     23.650973   17.333851   21.232920 O.3        1 MOL1        -0.3740
      88    C26     25.464745   18.604093   22.290848 C.3        1 MOL1         0.1003
      89    H42     26.468021   18.989114   22.066247 H          1 MOL1         0.0783
      90    O22     25.530970   17.835667   23.500817 O.3        1 MOL1        -0.5519
      91    H43     24.611355   17.524877   23.696718 H          1 MOL1         0.3769
      92    C27     24.520249   19.817856   22.462253 C.3        1 MOL1         0.1053
      93    H44     23.517936   19.445056   22.714170 H          1 MOL1         0.0783
      94    O23     25.005521   20.655236   23.516216 O.3        1 MOL1        -0.5519
      95    H45     25.255888   20.038298   24.239870 H          1 MOL1         0.3769
      96    C28     24.427344   20.630258   21.146803 C.3        1 MOL1         0.1018
      97    H46     25.368875   21.179673   21.015807 H          1 MOL1         0.0783
      98    C29     24.174858   19.729784   19.904852 C.3        1 MOL1         0.1043
      99    H47     23.141146   19.363892   19.943362 H          1 MOL1         0.0783
     100    O24     25.089442   18.604336   19.912161 O.3        1 MOL1        -0.3740
     101    C30     24.359378   20.474396   18.564149 C.3        1 MOL1         0.0138
     102    H48     23.616553   21.279124   18.496058 H          1 MOL1         0.0794
     103    H49     24.159402   19.775238   17.741234 H          1 MOL1         0.0794
     104    O25     25.680449   21.011371   18.449330 O.3        1 MOL1        -0.5486
     105    H50     26.295523   20.251237   18.550480 H          1 MOL1         0.3769
     106    C31     21.233595   14.104340   22.162514 C.3        1 MOL1         0.2972
     107    H51     20.808876   13.144374   22.482645 H          1 MOL1         0.0751
     108    O26     20.277503   14.889552   21.419842 O.3        1 MOL1        -0.3740
     109    C32     21.715916   14.920682   23.389518 C.3        1 MOL1         0.1003
     110    H52     22.496314   14.328473   23.884984 H          1 MOL1         0.0783
     111    O27     20.654230   15.173059   24.324217 O.3        1 MOL1        -0.5519
     112    H53     19.949093   14.505955   24.145290 H          1 MOL1         0.3769
     113    C33     22.339214   16.258550   22.936321 C.3        1 MOL1         0.1053
     114    H54     21.541573   16.863534   22.492095 H          1 MOL1         0.0783
     115    O28     22.873063   16.924432   24.083322 O.3        1 MOL1        -0.5519
     116    H55     22.200166   16.769468   24.784448 H          1 MOL1         0.3769
     117    C34     23.431598   16.052035   21.857778 C.3        1 MOL1         0.1018
     118    H56     24.338881   15.669718   22.344147 H          1 MOL1         0.0783
     119    C35     22.978076   15.072080   20.738119 C.3        1 MOL1         0.1043
     120    H57     22.234656   15.583984   20.112768 H          1 MOL1         0.0783
     121    O29     22.384674   13.883455   21.319061 O.3        1 MOL1        -0.3740
     122    C36     24.131926   14.621166   19.815010 C.3        1 MOL1         0.0138
     123    H58     24.518334   15.494478   19.272905 H          1 MOL1         0.0794
     124    H59     23.733397   13.922698   19.066960 H          1 MOL1         0.0794
     125    O30     25.182019   14.001699   20.563379 O.3        1 MOL1        -0.5486
     126    H60     24.771952   13.245408   21.039273 H          1 MOL1         0.3769
     127    N1      17.931102   17.307474   26.921871 N.4        1 MOL1        -0.4857
     128    H1      16.959896   17.614558   26.760911 H          1 MOL1         0.3650
     129    H2      18.127088   17.533489   27.909234 H          1 MOL1         0.3650
     130    C1      18.881431   18.082365   26.024786 C.3        1 MOL1         0.0209
     131    H3      19.891459   17.705412   26.204583 H          1 MOL1         0.0967
     132    H4      18.846838   19.130718   26.331894 H          1 MOL1         0.0967
     133    C2      18.551414   17.983030   24.524443 C.3        1 MOL1        -0.1378
     134    H5      18.574368   16.932056   24.222529 H          1 MOL1         0.0993
     135    H6      17.532189   18.347149   24.346373 H          1 MOL1         0.0993
     136    C3      19.555496   18.776570   23.663796 C.3        1 MOL1        -0.1338
     137    H7      20.576837   18.460061   23.909986 H          1 MOL1         0.0993
     138    H8      19.494815   19.843954   23.915690 H          1 MOL1         0.0993
     139    C4      19.299267   18.569124   22.153293 C.3        1 MOL1        -0.1338
     140    H9      19.367320   17.500828   21.909236 H          1 MOL1         0.0993
     141    H10     18.276660   18.879668   21.904509 H          1 MOL1         0.0993
     142    C5      20.303543   19.361552   21.290558 C.3        1 MOL1        -0.1313
     143    H11     21.326946   19.028568   21.509915 H          1 MOL1         0.0993
     144    H12     20.255956   20.424425   21.560196 H          1 MOL1         0.0993
     145    C6      20.016674   19.195681   19.783140 C.3        1 MOL1        -0.2328
     146    H13     20.743463   19.757402   19.182389 H          1 MOL1         0.1004
     147    H14     19.015626   19.568591   19.529487 H          1 MOL1         0.1004
     148    H15     20.076623   18.141269   19.484459 H          1 MOL1         0.1004
     149    C7      18.068394   15.804973   26.695979 C.3        1 MOL1        -0.0781
     150    H16     17.771887   15.564127   25.672998 H          1 MOL1         0.0978
     151    H17     19.108587   15.511828   26.855832 H          1 MOL1         0.0978
     152    H18     17.421598   15.276328   27.399461 H          1 MOL1         0.0978
@<TRIPOS>BOND
    1     1     2    1
    2     1     3    1
    3     1     4    1
    4     4     5    1
    5     4     6    1
    6     6     7    1
    7     4     8    1
    8     8     9    1
    9     8    10    1
   10    10    11    1
   11     8    12    1
   12    12    13    1
   13    12    14    1
   14    14    15    1
   15     1    16    1
   16    14    16    1
   17    14    17    1
   18    17    18    1
   19    17    19    1
   20    17    20    1
   21    20    21    1
   22    22    23    1
   23    22    24    1
   24    22    25    1
   25    25    26    1
   26    25    27    1
   27    27    28    1
   28    25    29    1
   29    29    30    1
   30    29    31    1
   31    31    32    1
   32     3    33    1
   33    29    33    1
   34    33    34    1
   35    33    35    1
   36    35    36    1
   37    22    37    1
   38    35    37    1
   39    35    38    1
   40    38    39    1
   41    38    40    1
   42    38    41    1
   43    41    42    1
   44    43    44    1
   45    43    45    1
   46    43    46    1
   47    46    47    1
   48    46    48    1
   49    48    49    1
   50    46    50    1
   51    50    51    1
   52    50    52    1
   53    52    53    1
   54    24    54    1
   55    50    54    1
   56    54    55    1
   57    54    56    1
   58    56    57    1
   59    43    58    1
   60    56    58    1
   61    56    59    1
   62    59    60    1
   63    59    61    1
   64    59    62    1
   65    62    63    1
   66    64    65    1
   67    64    66    1
   68    64    67    1
   69    67    68    1
   70    67    69    1
   71    69    70    1
   72    67    71    1
   73    71    72    1
   74    71    73    1
   75    73    74    1
   76    45    75    1
   77    71    75    1
   78    75    76    1
   79    75    77    1
   80    77    78    1
   81    64    79    1
   82    77    79    1
   83    77    80    1
   84    80    81    1
   85    80    82    1
   86    80    83    1
   87    83    84    1
   88    85    86    1
   89    85    87    1
   90    85    88    1
   91    88    89    1
   92    88    90    1
   93    90    91    1
   94    88    92    1
   95    92    93    1
   96    92    94    1
   97    94    95    1
   98    66    96    1
   99    92    96    1
  100    96    97    1
  101    96    98    1
  102    98    99    1
  103    85   100    1
  104    98   100    1
  105    98   101    1
  106   101   102    1
  107   101   103    1
  108   101   104    1
  109   104   105    1
  110   106   107    1
  111    12   108    1
  112   106   108    1
  113   106   109    1
  114   109   110    1
  115   109   111    1
  116   111   112    1
  117   109   113    1
  118   113   114    1
  119   113   115    1
  120   115   116    1
  121    87   117    1
  122   113   117    1
  123   117   118    1
  124   117   119    1
  125   119   120    1
  126   106   121    1
  127   119   121    1
  128   119   122    1
  129   122   123    1
  130   122   124    1
  131   122   125    1
  132   125   126    1
  133   127   128    1
  134   127   129    1
  135   127   130    1
  136   130   131    1
  137   130   132    1
  138   130   133    1
  139   133   134    1
  140   133   135    1
  141   133   136    1
  142   136   137    1
  143   136   138    1
  144   136   139    1
  145   139   140    1
  146   139   141    1
  147   139   142    1
  148   142   143    1
  149   142   144    1
  150   142   145    1
  151   145   146    1
  152   145   147    1
  153   145   148    1
  154   127   149    1
  155   149   150    1
  156   149   151    1
  157   149   152    1
@<TRIPOS>SUBSTRUCTURE
       1 MOL1            1 RESIDUE      1      MOL     
       2 MOL1          152 RESIDUE      1      MOL     
@<SCITEGIC>MOL_PROPERTY
VM2 Rank
SciTegic.value.IntegerValue
5

@<SCITEGIC>MOL_PROPERTY
Conf_Id
SciTegic.value.IntegerValue
26870

@<SCITEGIC>MOL_PROPERTY
Probability
SciTegic.value.DoubleValue
0.97

@<SCITEGIC>MOL_PROPERTY
Sum Probability
SciTegic.value.DoubleValue
7.07

@<SCITEGIC>MOL_PROPERTY
Delta G
SciTegic.value.DoubleValue
0.477

@<SCITEGIC>MOL_PROPERTY
G
SciTegic.value.DoubleValue
596.451

@<SCITEGIC>MOL_PROPERTY
E
SciTegic.value.DoubleValue
394.300

@<SCITEGIC>MOL_PROPERTY
-TS
SciTegic.value.DoubleValue
202.151

@<SCITEGIC>MOL_PROPERTY
U+W
SciTegic.value.DoubleValue
260.163

@<SCITEGIC>MOL_PROPERTY
U
SciTegic.value.DoubleValue
339.864

@<SCITEGIC>MOL_PROPERTY
W
SciTegic.value.DoubleValue
-79.701

@<SCITEGIC>MOL_PROPERTY
W(PB)
SciTegic.value.DoubleValue
-85.922

@<SCITEGIC>MOL_PROPERTY
W(SA)
SciTegic.value.DoubleValue
6.221

@<SCITEGIC>MOL_PROPERTY
Valence
SciTegic.value.DoubleValue
146.548

@<SCITEGIC>MOL_PROPERTY
Coulomb
SciTegic.value.DoubleValue
218.749

@<SCITEGIC>MOL_PROPERTY
VdW
SciTegic.value.DoubleValue
-25.433

@<SCITEGIC>MOL_PROPERTY
VdW6
SciTegic.value.DoubleValue
-176.460

@<SCITEGIC>MOL_PROPERTY
VdW12
SciTegic.value.DoubleValue
151.027

@<SCITEGIC>MOL_PROPERTY
Bond
SciTegic.value.DoubleValue
4.422

@<SCITEGIC>MOL_PROPERTY
Angle
SciTegic.value.DoubleValue
9.721

@<SCITEGIC>MOL_PROPERTY
Pdih
SciTegic.value.DoubleValue
132.405

@<SCITEGIC>MOL_PROPERTY
Idih
SciTegic.value.DoubleValue
0.000

@<SCITEGIC>MOL_PROPERTY
Tether
SciTegic.value.DoubleValue
0.000

@<TRIPOS>MOLECULE
CD_guest-s12_vm2_single.mol2 : vm2 host+ligand conformer 6
         152         157           2
SMALL
USER_CHARGES
 
@<TRIPOS>ATOM
       1    C1      16.122610   15.061329   20.209423 C.3        1 MOL1         0.2972
       2    H1      15.077141   14.964244   19.889548 H          1 MOL1         0.0751
       3    O1      16.427909   16.411980   20.623485 O.3        1 MOL1        -0.3740
       4    C2      16.465542   14.055691   21.337804 C.3        1 MOL1         0.1003
       5    H2      16.388994   13.050505   20.902766 H          1 MOL1         0.0783
       6    O2      15.557665   14.140280   22.445346 O.3        1 MOL1        -0.5519
       7    H3      15.722672   15.013192   22.882321 H          1 MOL1         0.3769
       8    C3      17.926738   14.259075   21.803580 C.3        1 MOL1         0.1053
       9    H4      18.000704   15.253854   22.262630 H          1 MOL1         0.0783
      10    O3      18.237082   13.251734   22.773534 O.3        1 MOL1        -0.5519
      11    H5      17.412224   13.142896   23.300081 H          1 MOL1         0.3769
      12    C4      18.922768   14.210630   20.606079 C.3        1 MOL1         0.1018
      13    H6      19.099263   13.165108   20.320539 H          1 MOL1         0.0783
      14    C5      18.416626   14.991729   19.358461 C.3        1 MOL1         0.1043
      15    H7      18.569648   16.063670   19.529361 H          1 MOL1         0.0783
      16    O4      17.009310   14.730428   19.120079 O.3        1 MOL1        -0.3740
      17    C6      19.192092   14.604431   18.082952 C.3        1 MOL1         0.0138
      18    H8      18.978738   13.556808   17.831691 H          1 MOL1         0.0794
      19    H9      20.270073   14.690202   18.275581 H          1 MOL1         0.0794
      20    O5      18.820393   15.467045   17.006218 O.3        1 MOL1        -0.5486
      21    H10     17.838365   15.442091   16.962984 H          1 MOL1         0.3769
      22    C7      15.034443   19.953276   22.191045 C.3        1 MOL1         0.2972
      23    H11     14.459677   20.772496   22.641751 H          1 MOL1         0.0751
      24    O6      16.273315   20.425999   21.622845 O.3        1 MOL1        -0.3740
      25    C8      15.348468   18.877279   23.258584 C.3        1 MOL1         0.1003
      26    H12     14.385861   18.513920   23.641399 H          1 MOL1         0.0783
      27    O7      16.112448   19.424981   24.346826 O.3        1 MOL1        -0.5519
      28    H13     16.004555   20.406320   24.309757 H          1 MOL1         0.3769
      29    C9      16.101990   17.679611   22.636064 C.3        1 MOL1         0.1053
      30    H14     17.103206   18.019032   22.352318 H          1 MOL1         0.0783
      31    O8      16.210020   16.653977   23.625461 O.3        1 MOL1        -0.5519
      32    H15     16.504705   17.124785   24.437676 H          1 MOL1         0.3769
      33    C10     15.418597   17.143165   21.350251 C.3        1 MOL1         0.1018
      34    H16     14.565681   16.510679   21.629383 H          1 MOL1         0.0783
      35    C11     14.948885   18.282423   20.402221 C.3        1 MOL1         0.1043
      36    H17     15.835888   18.707082   19.914419 H          1 MOL1         0.0783
      37    O9      14.265261   19.320505   21.147021 O.3        1 MOL1        -0.3740
      38    C12     13.996986   17.792245   19.288849 C.3        1 MOL1         0.0138
      39    H18     14.532611   17.078018   18.649404 H          1 MOL1         0.0794
      40    H19     13.717545   18.648416   18.660326 H          1 MOL1         0.0794
      41    O10     12.828454   17.179143   19.840892 O.3        1 MOL1        -0.5486
      42    H20     12.415194   17.852006   20.426720 H          1 MOL1         0.3769
      43    C13     18.395986   24.023184   21.413841 C.3        1 MOL1         0.2972
      44    H21     18.667835   25.077488   21.277950 H          1 MOL1         0.0751
      45    O11     19.556488   23.190201   21.601635 O.3        1 MOL1        -0.3740
      46    C14     17.496200   23.866901   22.664905 C.3        1 MOL1         0.1003
      47    H22     16.608468   24.494287   22.511838 H          1 MOL1         0.0783
      48    O12     18.185526   24.304794   23.847297 O.3        1 MOL1        -0.5519
      49    H23     19.154323   24.183246   23.685718 H          1 MOL1         0.3769
      50    C15     17.022026   22.403535   22.831923 C.3        1 MOL1         0.1053
      51    H24     17.899752   21.794026   23.074863 H          1 MOL1         0.0783
      52    O13     16.080631   22.343703   23.908600 O.3        1 MOL1        -0.5519
      53    H25     16.444717   22.952227   24.591040 H          1 MOL1         0.3769
      54    C16     16.404042   21.857753   21.514841 C.3        1 MOL1         0.1018
      55    H26     15.431008   22.334655   21.335588 H          1 MOL1         0.0783
      56    C17     17.318467   22.131209   20.293312 C.3        1 MOL1         0.1043
      57    H27     18.220730   21.511977   20.375645 H          1 MOL1         0.0783
      58    O14     17.665101   23.537499   20.268168 O.3        1 MOL1        -0.3740
      59    C18     16.617480   21.798080   18.959426 C.3        1 MOL1         0.0138
      60    H28     15.803844   22.515298   18.786943 H          1 MOL1         0.0794
      61    H29     16.169548   20.798528   19.024472 H          1 MOL1         0.0794
      62    O15     17.557335   21.831700   17.883971 O.3        1 MOL1        -0.5486
      63    H30     17.972508   22.720850   17.897269 H          1 MOL1         0.3769
      64    C19     23.647124   22.980722   21.138722 C.3        1 MOL1         0.2972
      65    H31     24.715558   23.132412   20.938319 H          1 MOL1         0.0751
      66    O16     23.334744   21.600485   21.418649 O.3        1 MOL1        -0.3740
      67    C20     23.186023   23.822103   22.354071 C.3        1 MOL1         0.1003
      68    H32     23.325172   24.881174   22.101026 H          1 MOL1         0.0783
      69    O17     23.955627   23.508481   23.525532 O.3        1 MOL1        -0.5519
      70    H33     24.036145   22.521959   23.574330 H          1 MOL1         0.3769
      71    C21     21.681577   23.579584   22.615153 C.3        1 MOL1         0.1053
      72    H34     21.570899   22.533756   22.921302 H          1 MOL1         0.0783
      73    O18     21.220214   24.437634   23.662991 O.3        1 MOL1        -0.5519
      74    H35     21.939504   24.428922   24.333451 H          1 MOL1         0.3769
      75    C22     20.834727   23.800271   21.335878 C.3        1 MOL1         0.1018
      76    H36     20.750976   24.880092   21.155135 H          1 MOL1         0.0783
      77    C23     21.442967   23.115937   20.078561 C.3        1 MOL1         0.1043
      78    H37     21.281415   22.033094   20.143449 H          1 MOL1         0.0783
      79    O19     22.860806   23.404332   20.006359 O.3        1 MOL1        -0.3740
      80    C24     20.810042   23.618523   18.765641 C.3        1 MOL1         0.0138
      81    H38     21.002946   24.694123   18.656392 H          1 MOL1         0.0794
      82    H39     19.724784   23.475363   18.807575 H          1 MOL1         0.0794
      83    O20     21.348723   22.896116   17.657436 O.3        1 MOL1        -0.5486
      84    H40     22.324557   22.988790   17.723069 H          1 MOL1         0.3769
      85    C25     24.953264   17.791663   21.400625 C.3        1 MOL1         0.2972
      86    H41     25.604849   16.909570   21.352157 H          1 MOL1         0.0751
      87    O21     23.559108   17.419694   21.320190 O.3        1 MOL1        -0.3740
      88    C26     25.211803   18.605153   22.698878 C.3        1 MOL1         0.1003
      89    H42     26.250639   18.957652   22.655517 H          1 MOL1         0.0783
      90    O22     25.045570   17.810384   23.882133 O.3        1 MOL1        -0.5519
      91    H43     24.093629   17.539363   23.914475 H          1 MOL1         0.3769
      92    C27     24.291384   19.846990   22.743420 C.3        1 MOL1         0.1053
      93    H44     23.252041   19.501761   22.811760 H          1 MOL1         0.0783
      94    O23     24.611117   20.642979   23.889124 O.3        1 MOL1        -0.5519
      95    H45     24.731497   19.999545   24.622742 H          1 MOL1         0.3769
      96    C28     24.447054   20.689906   21.454247 C.3        1 MOL1         0.1018
      97    H46     25.410107   21.215086   21.503025 H          1 MOL1         0.0783
      98    C29     24.379557   19.828790   20.162175 C.3        1 MOL1         0.1043
      99    H47     23.342330   19.496448   20.025919 H          1 MOL1         0.0783
     100    O24     25.237791   18.667785   20.289848 O.3        1 MOL1        -0.3740
     101    C30     24.786596   20.601439   18.884653 C.3        1 MOL1         0.0138
     102    H48     23.993193   21.322474   18.647329 H          1 MOL1         0.0794
     103    H49     24.842159   19.891699   18.048459 H          1 MOL1         0.0794
     104    O25     26.035560   21.287339   19.041151 O.3        1 MOL1        -0.5486
     105    H50     26.254400   21.706996   18.180765 H          1 MOL1         0.3769
     106    C31     21.042377   14.133450   21.865651 C.3        1 MOL1         0.2972
     107    H51     20.630202   13.153438   22.135781 H          1 MOL1         0.0751
     108    O26     20.157449   14.858968   20.985895 O.3        1 MOL1        -0.3740
     109    C32     21.312205   14.984712   23.137571 C.3        1 MOL1         0.1003
     110    H52     22.028008   14.424887   23.753615 H          1 MOL1         0.0783
     111    O27     20.119123   15.218791   23.902720 O.3        1 MOL1        -0.5519
     112    H53     19.510193   14.462357   23.728744 H          1 MOL1         0.3769
     113    C33     21.955254   16.337471   22.761152 C.3        1 MOL1         0.1053
     114    H54     21.220909   16.904553   22.179598 H          1 MOL1         0.0783
     115    O28     22.277579   17.046198   23.961281 O.3        1 MOL1        -0.5519
     116    H55     21.495768   16.903838   24.541315 H          1 MOL1         0.3769
     117    C34     23.211451   16.136168   21.879772 C.3        1 MOL1         0.1018
     118    H56     24.017294   15.730215   22.505655 H          1 MOL1         0.0783
     119    C35     22.932435   15.170969   20.694049 C.3        1 MOL1         0.1043
     120    H57     22.261483   15.675470   19.985807 H          1 MOL1         0.0783
     121    O29     22.303446   13.959703   21.182894 O.3        1 MOL1        -0.3740
     122    C36     24.207739   14.760919   19.923944 C.3        1 MOL1         0.0138
     123    H58     24.639587   15.651094   19.447408 H          1 MOL1         0.0794
     124    H59     23.927972   14.064919   19.121799 H          1 MOL1         0.0794
     125    O30     25.166680   14.154820   20.795696 O.3        1 MOL1        -0.5486
     126    H60     24.717879   13.381155   21.203782 H          1 MOL1         0.3769
     127    N1      19.940933   21.008028   26.581895 N.4        1 MOL1        -0.4857
     128    H1      20.952569   20.858397   26.714193 H          1 MOL1         0.3650
     129    H2      19.509179   20.751994   27.483238 H          1 MOL1         0.3650
     130    C1      19.413785   20.092642   25.490197 C.3        1 MOL1         0.0209
     131    H3      18.350694   20.310024   25.355282 H          1 MOL1         0.0967
     132    H4      19.506060   19.063650   25.846906 H          1 MOL1         0.0967
     133    C2      20.148059   20.226889   24.142904 C.3        1 MOL1        -0.1378
     134    H5      20.090339   21.266641   23.806047 H          1 MOL1         0.0993
     135    H6      21.210568   19.978019   24.267088 H          1 MOL1         0.0993
     136    C3      19.511860   19.323358   23.070135 C.3        1 MOL1        -0.1338
     137    H7      18.451195   19.580979   22.985235 H          1 MOL1         0.0993
     138    H8      19.560046   18.272230   23.387574 H          1 MOL1         0.0993
     139    C4      20.182231   19.493242   21.690630 C.3        1 MOL1        -0.1338
     140    H9      20.162487   20.550635   21.402861 H          1 MOL1         0.0993
     141    H10     21.238990   19.203484   21.753927 H          1 MOL1         0.0993
     142    C5      19.472894   18.653924   20.606456 C.3        1 MOL1        -0.1313
     143    H11     18.434700   18.994539   20.490263 H          1 MOL1         0.0993
     144    H12     19.423857   17.605025   20.926688 H          1 MOL1         0.0993
     145    C6      20.196976   18.744977   19.247290 C.3        1 MOL1        -0.2328
     146    H13     19.674098   18.147222   18.488868 H          1 MOL1         0.1004
     147    H14     21.224760   18.366909   19.322870 H          1 MOL1         0.1004
     148    H15     20.235686   19.782576   18.888670 H          1 MOL1         0.1004
     149    C7      19.646258   22.470596   26.264364 C.3        1 MOL1        -0.0781
     150    H16     18.570633   22.599640   26.124944 H          1 MOL1         0.0978
     151    H17     19.988033   23.092905   27.094161 H          1 MOL1         0.0978
     152    H18     20.172189   22.757866   25.351666 H          1 MOL1         0.0978
@<TRIPOS>BOND
    1     1     2    1
    2     1     3    1
    3     1     4    1
    4     4     5    1
    5     4     6    1
    6     6     7    1
    7     4     8    1
    8     8     9    1
    9     8    10    1
   10    10    11    1
   11     8    12    1
   12    12    13    1
   13    12    14    1
   14    14    15    1
   15     1    16    1
   16    14    16    1
   17    14    17    1
   18    17    18    1
   19    17    19    1
   20    17    20    1
   21    20    21    1
   22    22    23    1
   23    22    24    1
   24    22    25    1
   25    25    26    1
   26    25    27    1
   27    27    28    1
   28    25    29    1
   29    29    30    1
   30    29    31    1
   31    31    32    1
   32     3    33    1
   33    29    33    1
   34    33    34    1
   35    33    35    1
   36    35    36    1
   37    22    37    1
   38    35    37    1
   39    35    38    1
   40    38    39    1
   41    38    40    1
   42    38    41    1
   43    41    42    1
   44    43    44    1
   45    43    45    1
   46    43    46    1
   47    46    47    1
   48    46    48    1
   49    48    49    1
   50    46    50    1
   51    50    51    1
   52    50    52    1
   53    52    53    1
   54    24    54    1
   55    50    54    1
   56    54    55    1
   57    54    56    1
   58    56    57    1
   59    43    58    1
   60    56    58    1
   61    56    59    1
   62    59    60    1
   63    59    61    1
   64    59    62    1
   65    62    63    1
   66    64    65    1
   67    64    66    1
   68    64    67    1
   69    67    68    1
   70    67    69    1
   71    69    70    1
   72    67    71    1
   73    71    72    1
   74    71    73    1
   75    73    74    1
   76    45    75    1
   77    71    75    1
   78    75    76    1
   79    75    77    1
   80    77    78    1
   81    64    79    1
   82    77    79    1
   83    77    80    1
   84    80    81    1
   85    80    82    1
   86    80    83    1
   87    83    84    1
   88    85    86    1
   89    85    87    1
   90    85    88    1
   91    88    89    1
   92    88    90    1
   93    90    91    1
   94    88    92    1
   95    92    93    1
   96    92    94    1
   97    94    95    1
   98    66    96    1
   99    92    96    1
  100    96    97    1
  101    96    98    1
  102    98    99    1
  103    85   100    1
  104    98   100    1
  105    98   101    1
  106   101   102    1
  107   101   103    1
  108   101   104    1
  109   104   105    1
  110   106   107    1
  111    12   108    1
  112   106   108    1
  113   106   109    1
  114   109   110    1
  115   109   111    1
  116   111   112    1
  117   109   113    1
  118   113   114    1
  119   113   115    1
  120   115   116    1
  121    87   117    1
  122   113   117    1
  123   117   118    1
  124   117   119    1
  125   119   120    1
  126   106   121    1
  127   119   121    1
  128   119   122    1
  129   122   123    1
  130   122   124    1
  131   122   125    1
  132   125   126    1
  133   127   128    1
  134   127   129    1
  135   127   130    1
  136   130   131    1
  137   130   132    1
  138   130   133    1
  139   133   134    1
  140   133   135    1
  141   133   136    1
  142   136   137    1
  143   136   138    1
  144   136   139    1
  145   139   140    1
  146   139   141    1
  147   139   142    1
  148   142   143    1
  149   142   144    1
  150   142   145    1
  151   145   146    1
  152   145   147    1
  153   145   148    1
  154   127   149    1
  155   149   150    1
  156   149   151    1
  157   149   152    1
@<TRIPOS>SUBSTRUCTURE
       1 MOL1            1 RESIDUE      1      MOL     
       2 MOL1          152 RESIDUE      1      MOL     
@<SCITEGIC>MOL_PROPERTY
VM2 Rank
SciTegic.value.IntegerValue
6

@<SCITEGIC>MOL_PROPERTY
Conf_Id
SciTegic.value.IntegerValue
23478

@<SCITEGIC>MOL_PROPERTY
Probability
SciTegic.value.DoubleValue
0.97

@<SCITEGIC>MOL_PROPERTY
Sum Probability
SciTegic.value.DoubleValue
8.04

@<SCITEGIC>MOL_PROPERTY
Delta G
SciTegic.value.DoubleValue
0.480

@<SCITEGIC>MOL_PROPERTY
G
SciTegic.value.DoubleValue
596.453

@<SCITEGIC>MOL_PROPERTY
E
SciTegic.value.DoubleValue
393.899

@<SCITEGIC>MOL_PROPERTY
-TS
SciTegic.value.DoubleValue
202.554

@<SCITEGIC>MOL_PROPERTY
U+W
SciTegic.value.DoubleValue
259.762

@<SCITEGIC>MOL_PROPERTY
U
SciTegic.value.DoubleValue
339.057

@<SCITEGIC>MOL_PROPERTY
W
SciTegic.value.DoubleValue
-79.295

@<SCITEGIC>MOL_PROPERTY
W(PB)
SciTegic.value.DoubleValue
-85.424

@<SCITEGIC>MOL_PROPERTY
W(SA)
SciTegic.value.DoubleValue
6.129

@<SCITEGIC>MOL_PROPERTY
Valence
SciTegic.value.DoubleValue
146.391

@<SCITEGIC>MOL_PROPERTY
Coulomb
SciTegic.value.DoubleValue
220.379

@<SCITEGIC>MOL_PROPERTY
VdW
SciTegic.value.DoubleValue
-27.713

@<SCITEGIC>MOL_PROPERTY
VdW6
SciTegic.value.DoubleValue
-180.891

@<SCITEGIC>MOL_PROPERTY
VdW12
SciTegic.value.DoubleValue
153.178

@<SCITEGIC>MOL_PROPERTY
Bond
SciTegic.value.DoubleValue
4.472

@<SCITEGIC>MOL_PROPERTY
Angle
SciTegic.value.DoubleValue
10.395

@<SCITEGIC>MOL_PROPERTY
Pdih
SciTegic.value.DoubleValue
131.524

@<SCITEGIC>MOL_PROPERTY
Idih
SciTegic.value.DoubleValue
0.000

@<SCITEGIC>MOL_PROPERTY
Tether
SciTegic.value.DoubleValue
0.000

@<TRIPOS>MOLECULE
CD_guest-s12_vm2_single.mol2 : vm2 host+ligand conformer 7
         152         157           2
SMALL
USER_CHARGES
 
@<TRIPOS>ATOM
       1    C1      16.247553   15.095543   20.683445 C.3        1 MOL1         0.2972
       2    H1      15.210269   14.894069   20.387209 H          1 MOL1         0.0751
       3    O1      16.456990   16.483323   21.019862 O.3        1 MOL1        -0.3740
       4    C2      16.634451   14.245297   21.917044 C.3        1 MOL1         0.1003
       5    H2      16.545562   13.190131   21.627212 H          1 MOL1         0.0783
       6    O2      15.754705   14.500960   23.023135 O.3        1 MOL1        -0.5519
       7    H3      15.562872   15.473071   23.033275 H          1 MOL1         0.3769
       8    C3      18.106370   14.503669   22.321607 C.3        1 MOL1         0.1053
       9    H4      18.184862   15.538496   22.682882 H          1 MOL1         0.0783
      10    O3      18.449059   13.595157   23.373962 O.3        1 MOL1        -0.5519
      11    H5      17.649576   13.566414   23.948398 H          1 MOL1         0.3769
      12    C4      19.065249   14.339913   21.105999 C.3        1 MOL1         0.1018
      13    H6      19.188115   13.273560   20.873999 H          1 MOL1         0.0783
      14    C5      18.541340   15.066612   19.837170 C.3        1 MOL1         0.1043
      15    H7      18.650341   16.148063   19.974035 H          1 MOL1         0.0783
      16    O4      17.149951   14.733774   19.618005 O.3        1 MOL1        -0.3740
      17    C6      19.324941   14.665239   18.570999 C.3        1 MOL1         0.0138
      18    H8      19.177118   13.594731   18.375258 H          1 MOL1         0.0794
      19    H9      20.397185   14.829132   18.742301 H          1 MOL1         0.0794
      20    O5      18.884451   15.446407   17.458346 O.3        1 MOL1        -0.5486
      21    H10     17.914308   15.304607   17.394147 H          1 MOL1         0.3769
      22    C7      14.694634   20.230896   20.881683 C.3        1 MOL1         0.2972
      23    H11     14.035191   21.098541   20.749701 H          1 MOL1         0.0751
      24    O6      16.058503   20.635152   21.124565 O.3        1 MOL1        -0.3740
      25    C8      14.206151   19.324992   22.043543 C.3        1 MOL1         0.1003
      26    H12     13.217334   18.942160   21.759053 H          1 MOL1         0.0783
      27    O7      14.080013   20.047698   23.276764 O.3        1 MOL1        -0.5519
      28    H13     14.982496   20.379539   23.513813 H          1 MOL1         0.3769
      29    C9      15.153366   18.112396   22.210621 C.3        1 MOL1         0.1053
      30    H14     16.138253   18.482819   22.526223 H          1 MOL1         0.0783
      31    O8      14.626738   17.230173   23.206196 O.3        1 MOL1        -0.5519
      32    H15     14.335057   17.816124   23.940135 H          1 MOL1         0.3769
      33    C10     15.318745   17.353527   20.869679 C.3        1 MOL1         0.1018
      34    H16     14.394272   16.793549   20.676627 H          1 MOL1         0.0783
      35    C11     15.609227   18.303330   19.673499 C.3        1 MOL1         0.1043
      36    H17     16.636862   18.676159   19.766393 H          1 MOL1         0.0783
      37    O9      14.684985   19.420610   19.686878 O.3        1 MOL1        -0.3740
      38    C12     15.485486   17.608324   18.299607 C.3        1 MOL1         0.0138
      39    H18     16.237461   16.811955   18.231912 H          1 MOL1         0.0794
      40    H19     15.712328   18.339357   17.512112 H          1 MOL1         0.0794
      41    O10     14.174835   17.066558   18.111462 O.3        1 MOL1        -0.5486
      42    H20     13.549557   17.817774   18.216743 H          1 MOL1         0.3769
      43    C13     18.478507   23.810890   22.167037 C.3        1 MOL1         0.2972
      44    H21     18.917276   24.760253   22.499336 H          1 MOL1         0.0751
      45    O11     19.444473   22.984653   21.485119 O.3        1 MOL1        -0.3740
      46    C14     17.911380   23.021887   23.374333 C.3        1 MOL1         0.1003
      47    H22     17.123871   23.639544   23.825502 H          1 MOL1         0.0783
      48    O12     18.922057   22.752283   24.359139 O.3        1 MOL1        -0.5519
      49    H23     19.655088   23.395116   24.203386 H          1 MOL1         0.3769
      50    C15     17.277054   21.695482   22.901164 C.3        1 MOL1         0.1053
      51    H24     18.080564   21.064698   22.508174 H          1 MOL1         0.0783
      52    O13     16.665229   21.052127   24.021588 O.3        1 MOL1        -0.5519
      53    H25     17.308163   21.181765   24.755235 H          1 MOL1         0.3769
      54    C16     16.251940   21.914868   21.760430 C.3        1 MOL1         0.1018
      55    H26     15.321369   22.306803   22.192239 H          1 MOL1         0.0783
      56    C17     16.780685   22.881848   20.662359 C.3        1 MOL1         0.1043
      57    H27     17.537515   22.348144   20.072425 H          1 MOL1         0.0783
      58    O14     17.379597   24.057569   21.263797 O.3        1 MOL1        -0.3740
      59    C18     15.681330   23.357468   19.686707 C.3        1 MOL1         0.0138
      60    H28     15.295365   22.491325   19.132861 H          1 MOL1         0.0794
      61    H29     16.130819   24.040014   18.953062 H          1 MOL1         0.0794
      62    O15     14.616908   24.009892   20.385063 O.3        1 MOL1        -0.5486
      63    H30     15.026171   24.757374   20.875370 H          1 MOL1         0.3769
      64    C19     23.569683   22.819945   20.951238 C.3        1 MOL1         0.2972
      65    H31     24.614918   23.034838   20.694643 H          1 MOL1         0.0751
      66    O16     23.373748   21.436371   21.307094 O.3        1 MOL1        -0.3740
      67    C20     23.119750   23.680015   22.157242 C.3        1 MOL1         0.1003
      68    H32     23.233009   24.733443   21.869792 H          1 MOL1         0.0783
      69    O17     23.935028   23.415853   23.310717 O.3        1 MOL1        -0.5519
      70    H33     24.114559   22.441726   23.332732 H          1 MOL1         0.3769
      71    C21     21.627005   23.432983   22.485995 C.3        1 MOL1         0.1053
      72    H34     21.531152   22.404550   22.855646 H          1 MOL1         0.0783
      73    O18     21.227067   24.353845   23.506543 O.3        1 MOL1        -0.5519
      74    H35     21.995052   24.394701   24.121402 H          1 MOL1         0.3769
      75    C22     20.733189   23.573354   21.220403 C.3        1 MOL1         0.1018
      76    H36     20.638234   24.632462   20.946010 H          1 MOL1         0.0783
      77    C23     21.313170   22.793099   20.011422 C.3        1 MOL1         0.1043
      78    H37     21.208349   21.716563   20.196756 H          1 MOL1         0.0783
      79    O19     22.707412   23.138742   19.839757 O.3        1 MOL1        -0.3740
      80    C24     20.581680   23.129386   18.695730 C.3        1 MOL1         0.0138
      81    H38     20.742191   24.187703   18.450024 H          1 MOL1         0.0794
      82    H39     19.502839   22.978243   18.831762 H          1 MOL1         0.0794
      83    O20     21.060496   22.289371   17.643794 O.3        1 MOL1        -0.5486
      84    H40     22.031490   22.431207   17.602779 H          1 MOL1         0.3769
      85    C25     25.165179   17.712370   21.169022 C.3        1 MOL1         0.2972
      86    H41     25.828965   16.844564   21.062568 H          1 MOL1         0.0751
      87    O21     23.782142   17.310222   21.274269 O.3        1 MOL1        -0.3740
      88    C26     25.562506   18.579865   22.394400 C.3        1 MOL1         0.1003
      89    H42     26.566393   18.977803   22.196613 H          1 MOL1         0.0783
      90    O22     25.601618   17.822482   23.612270 O.3        1 MOL1        -0.5519
      91    H43     24.678877   17.508701   23.786415 H          1 MOL1         0.3769
      92    C27     24.593557   19.777207   22.526004 C.3        1 MOL1         0.1053
      93    H44     23.592562   19.379904   22.729019 H          1 MOL1         0.0783
      94    O23     25.009227   20.621187   23.604492 O.3        1 MOL1        -0.5519
      95    H45     25.327875   20.005315   24.301080 H          1 MOL1         0.3769
      96    C28     24.533576   20.588218   21.208925 C.3        1 MOL1         0.1018
      97    H46     25.462272   21.167603   21.122950 H          1 MOL1         0.0783
      98    C29     24.358245   19.685338   19.953810 C.3        1 MOL1         0.1043
      99    H47     23.325146   19.313460   19.935857 H          1 MOL1         0.0783
     100    O24     25.278478   18.564612   20.009277 O.3        1 MOL1        -0.3740
     101    C30     24.612612   20.428852   18.623863 C.3        1 MOL1         0.0138
     102    H48     23.862979   21.220938   18.505830 H          1 MOL1         0.0794
     103    H49     24.474467   19.723766   17.793306 H          1 MOL1         0.0794
     104    O25     25.929623   20.986513   18.587437 O.3        1 MOL1        -0.5486
     105    H50     26.549733   20.235664   18.721724 H          1 MOL1         0.3769
     106    C31     21.254782   14.167690   22.203640 C.3        1 MOL1         0.2972
     107    H51     20.803226   13.223926   22.534423 H          1 MOL1         0.0751
     108    O26     20.333266   14.953277   21.418494 O.3        1 MOL1        -0.3740
     109    C32     21.717875   15.003816   23.424641 C.3        1 MOL1         0.1003
     110    H52     22.460419   14.402819   23.965672 H          1 MOL1         0.0783
     111    O27     20.628927   15.316455   24.308810 O.3        1 MOL1        -0.5519
     112    H53     19.920986   14.648469   24.142813 H          1 MOL1         0.3769
     113    C33     22.396528   16.310948   22.962355 C.3        1 MOL1         0.1053
     114    H54     21.630671   16.927706   22.478930 H          1 MOL1         0.0783
     115    O28     22.912639   16.985243   24.113125 O.3        1 MOL1        -0.5519
     116    H55     22.207648   16.874767   24.789380 H          1 MOL1         0.3769
     117    C34     23.514388   16.050351   21.922575 C.3        1 MOL1         0.1018
     118    H56     24.398271   15.655693   22.441068 H          1 MOL1         0.0783
     119    C35     23.063716   15.061481   20.810273 C.3        1 MOL1         0.1043
     120    H57     22.351923   15.581558   20.155316 H          1 MOL1         0.0783
     121    O29     22.421614   13.901025   21.395875 O.3        1 MOL1        -0.3740
     122    C36     24.230484   14.562665   19.928995 C.3        1 MOL1         0.0138
     123    H58     24.659795   15.416235   19.387648 H          1 MOL1         0.0794
     124    H59     23.833889   13.865882   19.178438 H          1 MOL1         0.0794
     125    O30     25.237888   13.922703   20.717706 O.3        1 MOL1        -0.5486
     126    H60     24.789568   13.189464   21.195187 H          1 MOL1         0.3769
     127    N1      21.817121   20.109470   27.056270 N.4        1 MOL1        -0.4857
     128    H1      21.534188   19.902250   28.026556 H          1 MOL1         0.3650
     129    H2      21.756866   21.135466   26.970128 H          1 MOL1         0.3650
     130    C1      20.848183   19.448287   26.091086 C.3        1 MOL1         0.0209
     131    H3      19.835844   19.717387   26.403174 H          1 MOL1         0.0967
     132    H4      20.960363   18.366036   26.192548 H          1 MOL1         0.0967
     133    C2      21.046981   19.858595   24.620431 C.3        1 MOL1        -0.1378
     134    H5      20.922584   20.943703   24.525156 H          1 MOL1         0.0993
     135    H6      22.071652   19.626727   24.311906 H          1 MOL1         0.0993
     136    C3      20.056261   19.132524   23.687415 C.3        1 MOL1        -0.1338
     137    H7      19.029106   19.423964   23.943300 H          1 MOL1         0.0993
     138    H8      20.120766   18.049201   23.854491 H          1 MOL1         0.0993
     139    C4      20.340755   19.447614   22.201549 C.3        1 MOL1        -0.1338
     140    H9      20.241341   20.525463   22.029665 H          1 MOL1         0.0993
     141    H10     21.379873   19.189079   21.958171 H          1 MOL1         0.0993
     142    C5      19.389522   18.678373   21.261741 C.3        1 MOL1        -0.1313
     143    H11     18.346473   18.931288   21.494391 H          1 MOL1         0.0993
     144    H12     19.498679   17.601339   21.442199 H          1 MOL1         0.0993
     145    C6      19.678323   18.987960   19.777437 C.3        1 MOL1        -0.2328
     146    H13     19.516693   20.051372   19.557355 H          1 MOL1         0.1004
     147    H14     19.019232   18.405499   19.121023 H          1 MOL1         0.1004
     148    H15     20.714950   18.737712   19.516852 H          1 MOL1         0.1004
     149    C7      23.245120   19.629405   26.816859 C.3        1 MOL1        -0.0781
     150    H16     23.278991   18.541608   26.909158 H          1 MOL1         0.0978
     151    H17     23.562325   19.924952   25.814712 H          1 MOL1         0.0978
     152    H18     23.904542   20.084451   27.559052 H          1 MOL1         0.0978
@<TRIPOS>BOND
    1     1     2    1
    2     1     3    1
    3     1     4    1
    4     4     5    1
    5     4     6    1
    6     6     7    1
    7     4     8    1
    8     8     9    1
    9     8    10    1
   10    10    11    1
   11     8    12    1
   12    12    13    1
   13    12    14    1
   14    14    15    1
   15     1    16    1
   16    14    16    1
   17    14    17    1
   18    17    18    1
   19    17    19    1
   20    17    20    1
   21    20    21    1
   22    22    23    1
   23    22    24    1
   24    22    25    1
   25    25    26    1
   26    25    27    1
   27    27    28    1
   28    25    29    1
   29    29    30    1
   30    29    31    1
   31    31    32    1
   32     3    33    1
   33    29    33    1
   34    33    34    1
   35    33    35    1
   36    35    36    1
   37    22    37    1
   38    35    37    1
   39    35    38    1
   40    38    39    1
   41    38    40    1
   42    38    41    1
   43    41    42    1
   44    43    44    1
   45    43    45    1
   46    43    46    1
   47    46    47    1
   48    46    48    1
   49    48    49    1
   50    46    50    1
   51    50    51    1
   52    50    52    1
   53    52    53    1
   54    24    54    1
   55    50    54    1
   56    54    55    1
   57    54    56    1
   58    56    57    1
   59    43    58    1
   60    56    58    1
   61    56    59    1
   62    59    60    1
   63    59    61    1
   64    59    62    1
   65    62    63    1
   66    64    65    1
   67    64    66    1
   68    64    67    1
   69    67    68    1
   70    67    69    1
   71    69    70    1
   72    67    71    1
   73    71    72    1
   74    71    73    1
   75    73    74    1
   76    45    75    1
   77    71    75    1
   78    75    76    1
   79    75    77    1
   80    77    78    1
   81    64    79    1
   82    77    79    1
   83    77    80    1
   84    80    81    1
   85    80    82    1
   86    80    83    1
   87    83    84    1
   88    85    86    1
   89    85    87    1
   90    85    88    1
   91    88    89    1
   92    88    90    1
   93    90    91    1
   94    88    92    1
   95    92    93    1
   96    92    94    1
   97    94    95    1
   98    66    96    1
   99    92    96    1
  100    96    97    1
  101    96    98    1
  102    98    99    1
  103    85   100    1
  104    98   100    1
  105    98   101    1
  106   101   102    1
  107   101   103    1
  108   101   104    1
  109   104   105    1
  110   106   107    1
  111    12   108    1
  112   106   108    1
  113   106   109    1
  114   109   110    1
  115   109   111    1
  116   111   112    1
  117   109   113    1
  118   113   114    1
  119   113   115    1
  120   115   116    1
  121    87   117    1
  122   113   117    1
  123   117   118    1
  124   117   119    1
  125   119   120    1
  126   106   121    1
  127   119   121    1
  128   119   122    1
  129   122   123    1
  130   122   124    1
  131   122   125    1
  132   125   126    1
  133   127   128    1
  134   127   129    1
  135   127   130    1
  136   130   131    1
  137   130   132    1
  138   130   133    1
  139   133   134    1
  140   133   135    1
  141   133   136    1
  142   136   137    1
  143   136   138    1
  144   136   139    1
  145   139   140    1
  146   139   141    1
  147   139   142    1
  148   142   143    1
  149   142   144    1
  150   142   145    1
  151   145   146    1
  152   145   147    1
  153   145   148    1
  154   127   149    1
  155   149   150    1
  156   149   151    1
  157   149   152    1
@<TRIPOS>SUBSTRUCTURE
       1 MOL1            1 RESIDUE      1      MOL     
       2 MOL1          152 RESIDUE      1      MOL     
@<SCITEGIC>MOL_PROPERTY
VM2 Rank
SciTegic.value.IntegerValue
7

@<SCITEGIC>MOL_PROPERTY
Conf_Id
SciTegic.value.IntegerValue
18005

@<SCITEGIC>MOL_PROPERTY
Probability
SciTegic.value.DoubleValue
0.95

@<SCITEGIC>MOL_PROPERTY
Sum Probability
SciTegic.value.DoubleValue
8.98

@<SCITEGIC>MOL_PROPERTY
Delta G
SciTegic.value.DoubleValue
0.495

@<SCITEGIC>MOL_PROPERTY
G
SciTegic.value.DoubleValue
596.468

@<SCITEGIC>MOL_PROPERTY
E
SciTegic.value.DoubleValue
394.182

@<SCITEGIC>MOL_PROPERTY
-TS
SciTegic.value.DoubleValue
202.286

@<SCITEGIC>MOL_PROPERTY
U+W
SciTegic.value.DoubleValue
260.045

@<SCITEGIC>MOL_PROPERTY
U
SciTegic.value.DoubleValue
337.976

@<SCITEGIC>MOL_PROPERTY
W
SciTegic.value.DoubleValue
-77.931

@<SCITEGIC>MOL_PROPERTY
W(PB)
SciTegic.value.DoubleValue
-84.184

@<SCITEGIC>MOL_PROPERTY
W(SA)
SciTegic.value.DoubleValue
6.253

@<SCITEGIC>MOL_PROPERTY
Valence
SciTegic.value.DoubleValue
146.139

@<SCITEGIC>MOL_PROPERTY
Coulomb
SciTegic.value.DoubleValue
217.419

@<SCITEGIC>MOL_PROPERTY
VdW
SciTegic.value.DoubleValue
-25.582

@<SCITEGIC>MOL_PROPERTY
VdW6
SciTegic.value.DoubleValue
-177.427

@<SCITEGIC>MOL_PROPERTY
VdW12
SciTegic.value.DoubleValue
151.845

@<SCITEGIC>MOL_PROPERTY
Bond
SciTegic.value.DoubleValue
4.424

@<SCITEGIC>MOL_PROPERTY
Angle
SciTegic.value.DoubleValue
9.869

@<SCITEGIC>MOL_PROPERTY
Pdih
SciTegic.value.DoubleValue
131.847

@<SCITEGIC>MOL_PROPERTY
Idih
SciTegic.value.DoubleValue
0.000

@<SCITEGIC>MOL_PROPERTY
Tether
SciTegic.value.DoubleValue
0.000

@<TRIPOS>MOLECULE
CD_guest-s12_vm2_single.mol2 : vm2 host+ligand conformer 8
         152         157           2
SMALL
USER_CHARGES
 
@<TRIPOS>ATOM
       1    C1      16.121323   15.066936   20.200637 C.3        1 MOL1         0.2972
       2    H1      15.076118   14.970413   19.879735 H          1 MOL1         0.0751
       3    O1      16.425760   16.416566   20.618790 O.3        1 MOL1        -0.3740
       4    C2      16.463704   14.058091   21.326267 C.3        1 MOL1         0.1003
       5    H2      16.387942   13.054198   20.888116 H          1 MOL1         0.0783
       6    O2      15.554897   14.138839   22.433348 O.3        1 MOL1        -0.5519
       7    H3      15.719974   15.010000   22.873772 H          1 MOL1         0.3769
       8    C3      17.924420   14.260653   21.793817 C.3        1 MOL1         0.1053
       9    H4      17.997768   15.254212   22.255530 H          1 MOL1         0.0783
      10    O3      18.233649   13.250766   22.761485 O.3        1 MOL1        -0.5519
      11    H5      17.408046   13.140248   23.286521 H          1 MOL1         0.3769
      12    C4      18.921623   14.215779   20.597057 C.3        1 MOL1         0.1018
      13    H6      19.098588   13.171045   20.308933 H          1 MOL1         0.0783
      14    C5      18.416077   14.999937   19.351075 C.3        1 MOL1         0.1043
      15    H7      18.568750   16.071419   19.524756 H          1 MOL1         0.0783
      16    O4      17.008913   14.739218   19.111028 O.3        1 MOL1        -0.3740
      17    C6      19.192448   14.616036   18.075094 C.3        1 MOL1         0.0138
      18    H8      18.979627   13.568951   17.821154 H          1 MOL1         0.0794
      19    H9      20.270285   14.701726   18.268610 H          1 MOL1         0.0794
      20    O5      18.821070   15.481129   17.000231 O.3        1 MOL1        -0.5486
      21    H10     17.839070   15.456010   16.956446 H          1 MOL1         0.3769
      22    C7      15.030873   19.951129   22.200294 C.3        1 MOL1         0.2972
      23    H11     14.456274   20.768538   22.654512 H          1 MOL1         0.0751
      24    O6      16.268653   20.426365   21.632015 O.3        1 MOL1        -0.3740
      25    C8      15.347047   18.871859   23.263835 C.3        1 MOL1         0.1003
      26    H12     14.385197   18.506587   23.646732 H          1 MOL1         0.0783
      27    O7      16.112100   19.416581   24.352836 O.3        1 MOL1        -0.5519
      28    H13     16.005764   20.398160   24.317483 H          1 MOL1         0.3769
      29    C9      16.100597   17.676721   22.636481 C.3        1 MOL1         0.1053
      30    H14     17.101505   18.017612   22.353351 H          1 MOL1         0.0783
      31    O8      16.209669   16.647727   23.622272 O.3        1 MOL1        -0.5519
      32    H15     16.505583   17.115651   24.435702 H          1 MOL1         0.3769
      33    C10     15.416527   17.144324   21.349258 C.3        1 MOL1         0.1018
      34    H16     14.564416   16.510113   21.626905 H          1 MOL1         0.0783
      35    C11     14.944622   18.286462   20.405807 C.3        1 MOL1         0.1043
      36    H17     15.830656   18.713600   19.918411 H          1 MOL1         0.0783
      37    O9      14.260894   19.321273   21.155102 O.3        1 MOL1        -0.3740
      38    C12     13.991853   17.799345   19.291838 C.3        1 MOL1         0.0138
      39    H18     14.527343   17.087815   18.649284 H          1 MOL1         0.0794
      40    H19     13.710957   18.657465   18.666630 H          1 MOL1         0.0794
      41    O10     12.824480   17.183330   19.843085 O.3        1 MOL1        -0.5486
      42    H20     12.411400   17.853757   20.431825 H          1 MOL1         0.3769
      43    C13     18.390014   24.023385   21.424918 C.3        1 MOL1         0.2972
      44    H21     18.662052   25.077939   21.291351 H          1 MOL1         0.0751
      45    O11     19.550729   23.188954   21.605062 O.3        1 MOL1        -0.3740
      46    C14     17.495605   23.863758   22.679372 C.3        1 MOL1         0.1003
      47    H22     16.607658   24.492281   22.532347 H          1 MOL1         0.0783
      48    O12     18.190769   24.297220   23.859979 O.3        1 MOL1        -0.5519
      49    H23     19.158673   24.175423   23.693352 H          1 MOL1         0.3769
      50    C15     17.021301   22.400161   22.843692 C.3        1 MOL1         0.1053
      51    H24     17.899798   21.789740   23.081306 H          1 MOL1         0.0783
      52    O13     16.084042   22.337020   23.923775 O.3        1 MOL1        -0.5519
      53    H25     16.451167   22.942705   24.607092 H          1 MOL1         0.3769
      54    C16     16.397959   21.858429   21.527518 C.3        1 MOL1         0.1018
      55    H26     15.423941   22.335431   21.353945 H          1 MOL1         0.0783
      56    C17     17.306840   22.135722   20.302775 C.3        1 MOL1         0.1043
      57    H27     18.209249   21.515849   20.378875 H          1 MOL1         0.0783
      58    O14     17.653768   23.541955   20.280915 O.3        1 MOL1        -0.3740
      59    C18     16.599508   21.807468   18.971008 C.3        1 MOL1         0.0138
      60    H28     15.787450   22.527584   18.803223 H          1 MOL1         0.0794
      61    H29     16.148615   20.809244   19.035825 H          1 MOL1         0.0794
      62    O15     17.535080   21.840132   17.891783 O.3        1 MOL1        -0.5486
      63    H30     17.954339   22.727352   17.905620 H          1 MOL1         0.3769
      64    C19     23.639473   22.978830   21.117000 C.3        1 MOL1         0.2972
      65    H31     24.706330   23.131926   20.909380 H          1 MOL1         0.0751
      66    O16     23.330140   21.596710   21.393367 O.3        1 MOL1        -0.3740
      67    C20     23.184528   23.820164   22.335013 C.3        1 MOL1         0.1003
      68    H32     23.318504   24.879176   22.078883 H          1 MOL1         0.0783
      69    O17     23.963307   23.513213   23.501876 O.3        1 MOL1        -0.5519
      70    H33     24.038274   22.526805   23.560402 H          1 MOL1         0.3769
      71    C21     21.682465   23.574465   22.606064 C.3        1 MOL1         0.1053
      72    H34     21.574941   22.527644   22.910242 H          1 MOL1         0.0783
      73    O18     21.226775   24.429655   23.658739 O.3        1 MOL1        -0.5519
      74    H35     21.951479   24.422429   24.323373 H          1 MOL1         0.3769
      75    C22     20.827920   23.798104   21.332482 C.3        1 MOL1         0.1018
      76    H36     20.744052   24.878326   21.154168 H          1 MOL1         0.0783
      77    C23     21.428388   23.115635   20.070384 C.3        1 MOL1         0.1043
      78    H37     21.266494   22.032791   20.134414 H          1 MOL1         0.0783
      79    O19     22.846003   23.403505   19.990147 O.3        1 MOL1        -0.3740
      80    C24     20.788519   23.621041   18.761910 C.3        1 MOL1         0.0138
      81    H38     20.988734   24.694975   18.649441 H          1 MOL1         0.0794
      82    H39     19.702630   23.486372   18.812711 H          1 MOL1         0.0794
      83    O20     21.312308   22.892743   17.650434 O.3        1 MOL1        -0.5486
      84    H40     22.289760   22.973007   17.710042 H          1 MOL1         0.3769
      85    C25     24.956270   17.791338   21.422034 C.3        1 MOL1         0.2972
      86    H41     25.608567   16.909465   21.386799 H          1 MOL1         0.0751
      87    O21     23.563252   17.419271   21.330055 O.3        1 MOL1        -0.3740
      88    C26     25.201420   18.614346   22.716685 C.3        1 MOL1         0.1003
      89    H42     26.240556   18.966714   22.681384 H          1 MOL1         0.0783
      90    O22     25.024429   17.828505   23.904102 O.3        1 MOL1        -0.5519
      91    H43     24.074374   17.549815   23.925189 H          1 MOL1         0.3769
      92    C27     24.280660   19.856574   22.743165 C.3        1 MOL1         0.1053
      93    H44     23.241003   19.511501   22.807227 H          1 MOL1         0.0783
      94    O23     24.592875   20.660559   23.884885 O.3        1 MOL1        -0.5519
      95    H45     24.707773   20.022152   24.623867 H          1 MOL1         0.3769
      96    C28     24.444870   20.689811   21.447993 C.3        1 MOL1         0.1018
      97    H46     25.405182   21.219895   21.498574 H          1 MOL1         0.0783
      98    C29     24.390470   19.816736   20.163066 C.3        1 MOL1         0.1043
      99    H47     23.354423   19.486280   20.012265 H          1 MOL1         0.0783
     100    O24     25.253113   18.661219   20.308893 O.3        1 MOL1        -0.3740
     101    C30     24.831586   20.574720   18.891202 C.3        1 MOL1         0.0138
     102    H48     24.131035   21.398713   18.703648 H          1 MOL1         0.0794
     103    H49     24.769134   19.891890   18.033372 H          1 MOL1         0.0794
     104    O25     26.162895   21.080707   19.027407 O.3        1 MOL1        -0.5486
     105    H50     26.733884   20.303649   19.218583 H          1 MOL1         0.3769
     106    C31     21.038669   14.136100   21.860548 C.3        1 MOL1         0.2972
     107    H51     20.625036   13.156138   22.128421 H          1 MOL1         0.0751
     108    O26     20.156116   14.863264   20.979437 O.3        1 MOL1        -0.3740
     109    C32     21.306253   14.984881   23.134355 C.3        1 MOL1         0.1003
     110    H52     22.021344   14.424083   23.750411 H          1 MOL1         0.0783
     111    O27     20.111649   15.217875   23.897790 O.3        1 MOL1        -0.5519
     112    H53     19.503809   14.460825   23.722774 H          1 MOL1         0.3769
     113    C33     21.949774   16.337777   22.760385 C.3        1 MOL1         0.1053
     114    H54     21.219036   16.902817   22.172311 H          1 MOL1         0.0783
     115    O28     22.261765   17.049534   23.961608 O.3        1 MOL1        -0.5519
     116    H55     21.477749   16.902503   24.537527 H          1 MOL1         0.3769
     117    C34     23.212089   16.135476   21.888289 C.3        1 MOL1         0.1018
     118    H56     24.012578   15.729031   22.520785 H          1 MOL1         0.0783
     119    C35     22.941607   15.169245   20.701191 C.3        1 MOL1         0.1043
     120    H57     22.273207   15.675279   19.991850 H          1 MOL1         0.0783
     121    O29     22.300130   13.960628   21.180774 O.3        1 MOL1        -0.3740
     122    C36     24.220196   14.767212   19.927258 C.3        1 MOL1         0.0138
     123    H58     24.574011   15.639986   19.361830 H          1 MOL1         0.0794
     124    H59     23.957398   13.990269   19.196893 H          1 MOL1         0.0794
     125    O30     25.257274   14.300887   20.800019 O.3        1 MOL1        -0.5486
     126    H60     25.998807   13.984755   20.238921 H          1 MOL1         0.3769
     127    N1      19.948747   21.001225   26.584636 N.4        1 MOL1        -0.4857
     128    H1      20.959709   20.846277   26.715959 H          1 MOL1         0.3650
     129    H2      19.516345   20.745756   27.485827 H          1 MOL1         0.3650
     130    C1      19.416336   20.090364   25.491701 C.3        1 MOL1         0.0209
     131    H3      18.353965   20.312354   25.358622 H          1 MOL1         0.0967
     132    H4      19.504865   19.060267   25.846165 H          1 MOL1         0.0967
     133    C2      20.149388   20.224357   24.143723 C.3        1 MOL1        -0.1378
     134    H5      20.093948   21.264676   23.808027 H          1 MOL1         0.0993
     135    H6      21.211400   19.972821   24.266578 H          1 MOL1         0.0993
     136    C3      19.510088   19.323018   23.070862 C.3        1 MOL1        -0.1338
     137    H7      18.449269   19.580908   22.988826 H          1 MOL1         0.0993
     138    H8      19.558573   18.271319   23.386311 H          1 MOL1         0.0993
     139    C4      20.177398   19.495019   21.690158 C.3        1 MOL1        -0.1338
     140    H9      20.157337   20.552889   21.404261 H          1 MOL1         0.0993
     141    H10     21.234101   19.204528   21.750495 H          1 MOL1         0.0993
     142    C5      19.465540   18.657875   20.606091 C.3        1 MOL1        -0.1313
     143    H11     18.426881   18.998205   20.493375 H          1 MOL1         0.0993
     144    H12     19.418060   17.608319   20.924365 H          1 MOL1         0.0993
     145    C6      20.186028   18.752355   19.245235 C.3        1 MOL1        -0.2328
     146    H13     19.661764   18.155714   18.486898 H          1 MOL1         0.1004
     147    H14     21.214346   18.375085   19.317419 H          1 MOL1         0.1004
     148    H15     20.222910   19.790713   18.888615 H          1 MOL1         0.1004
     149    C7      19.661311   22.465828   26.269894 C.3        1 MOL1        -0.0781
     150    H16     18.586296   22.600569   26.131137 H          1 MOL1         0.0978
     151    H17     20.006564   23.084891   27.100678 H          1 MOL1         0.0978
     152    H18     20.188331   22.752090   25.357497 H          1 MOL1         0.0978
@<TRIPOS>BOND
    1     1     2    1
    2     1     3    1
    3     1     4    1
    4     4     5    1
    5     4     6    1
    6     6     7    1
    7     4     8    1
    8     8     9    1
    9     8    10    1
   10    10    11    1
   11     8    12    1
   12    12    13    1
   13    12    14    1
   14    14    15    1
   15     1    16    1
   16    14    16    1
   17    14    17    1
   18    17    18    1
   19    17    19    1
   20    17    20    1
   21    20    21    1
   22    22    23    1
   23    22    24    1
   24    22    25    1
   25    25    26    1
   26    25    27    1
   27    27    28    1
   28    25    29    1
   29    29    30    1
   30    29    31    1
   31    31    32    1
   32     3    33    1
   33    29    33    1
   34    33    34    1
   35    33    35    1
   36    35    36    1
   37    22    37    1
   38    35    37    1
   39    35    38    1
   40    38    39    1
   41    38    40    1
   42    38    41    1
   43    41    42    1
   44    43    44    1
   45    43    45    1
   46    43    46    1
   47    46    47    1
   48    46    48    1
   49    48    49    1
   50    46    50    1
   51    50    51    1
   52    50    52    1
   53    52    53    1
   54    24    54    1
   55    50    54    1
   56    54    55    1
   57    54    56    1
   58    56    57    1
   59    43    58    1
   60    56    58    1
   61    56    59    1
   62    59    60    1
   63    59    61    1
   64    59    62    1
   65    62    63    1
   66    64    65    1
   67    64    66    1
   68    64    67    1
   69    67    68    1
   70    67    69    1
   71    69    70    1
   72    67    71    1
   73    71    72    1
   74    71    73    1
   75    73    74    1
   76    45    75    1
   77    71    75    1
   78    75    76    1
   79    75    77    1
   80    77    78    1
   81    64    79    1
   82    77    79    1
   83    77    80    1
   84    80    81    1
   85    80    82    1
   86    80    83    1
   87    83    84    1
   88    85    86    1
   89    85    87    1
   90    85    88    1
   91    88    89    1
   92    88    90    1
   93    90    91    1
   94    88    92    1
   95    92    93    1
   96    92    94    1
   97    94    95    1
   98    66    96    1
   99    92    96    1
  100    96    97    1
  101    96    98    1
  102    98    99    1
  103    85   100    1
  104    98   100    1
  105    98   101    1
  106   101   102    1
  107   101   103    1
  108   101   104    1
  109   104   105    1
  110   106   107    1
  111    12   108    1
  112   106   108    1
  113   106   109    1
  114   109   110    1
  115   109   111    1
  116   111   112    1
  117   109   113    1
  118   113   114    1
  119   113   115    1
  120   115   116    1
  121    87   117    1
  122   113   117    1
  123   117   118    1
  124   117   119    1
  125   119   120    1
  126   106   121    1
  127   119   121    1
  128   119   122    1
  129   122   123    1
  130   122   124    1
  131   122   125    1
  132   125   126    1
  133   127   128    1
  134   127   129    1
  135   127   130    1
  136   130   131    1
  137   130   132    1
  138   130   133    1
  139   133   134    1
  140   133   135    1
  141   133   136    1
  142   136   137    1
  143   136   138    1
  144   136   139    1
  145   139   140    1
  146   139   141    1
  147   139   142    1
  148   142   143    1
  149   142   144    1
  150   142   145    1
  151   145   146    1
  152   145   147    1
  153   145   148    1
  154   127   149    1
  155   149   150    1
  156   149   151    1
  157   149   152    1
@<TRIPOS>SUBSTRUCTURE
       1 MOL1            1 RESIDUE      1      MOL     
       2 MOL1          152 RESIDUE      1      MOL     
@<SCITEGIC>MOL_PROPERTY
VM2 Rank
SciTegic.value.IntegerValue
8

@<SCITEGIC>MOL_PROPERTY
Conf_Id
SciTegic.value.IntegerValue
24232

@<SCITEGIC>MOL_PROPERTY
Probability
SciTegic.value.DoubleValue
0.87

@<SCITEGIC>MOL_PROPERTY
Sum Probability
SciTegic.value.DoubleValue
9.85

@<SCITEGIC>MOL_PROPERTY
Delta G
SciTegic.value.DoubleValue
0.545

@<SCITEGIC>MOL_PROPERTY
G
SciTegic.value.DoubleValue
596.519

@<SCITEGIC>MOL_PROPERTY
E
SciTegic.value.DoubleValue
393.945

@<SCITEGIC>MOL_PROPERTY
-TS
SciTegic.value.DoubleValue
202.573

@<SCITEGIC>MOL_PROPERTY
U+W
SciTegic.value.DoubleValue
259.809

@<SCITEGIC>MOL_PROPERTY
U
SciTegic.value.DoubleValue
338.347

@<SCITEGIC>MOL_PROPERTY
W
SciTegic.value.DoubleValue
-78.538

@<SCITEGIC>MOL_PROPERTY
W(PB)
SciTegic.value.DoubleValue
-84.662

@<SCITEGIC>MOL_PROPERTY
W(SA)
SciTegic.value.DoubleValue
6.124

@<SCITEGIC>MOL_PROPERTY
Valence
SciTegic.value.DoubleValue
146.508

@<SCITEGIC>MOL_PROPERTY
Coulomb
SciTegic.value.DoubleValue
219.455

@<SCITEGIC>MOL_PROPERTY
VdW
SciTegic.value.DoubleValue
-27.616

@<SCITEGIC>MOL_PROPERTY
VdW6
SciTegic.value.DoubleValue
-180.798

@<SCITEGIC>MOL_PROPERTY
VdW12
SciTegic.value.DoubleValue
153.183

@<SCITEGIC>MOL_PROPERTY
Bond
SciTegic.value.DoubleValue
4.482

@<SCITEGIC>MOL_PROPERTY
Angle
SciTegic.value.DoubleValue
10.424

@<SCITEGIC>MOL_PROPERTY
Pdih
SciTegic.value.DoubleValue
131.603

@<SCITEGIC>MOL_PROPERTY
Idih
SciTegic.value.DoubleValue
0.000

@<SCITEGIC>MOL_PROPERTY
Tether
SciTegic.value.DoubleValue
0.000

