@<TRIPOS>MOLECULE
CD_guest-s11_vm2_single.mol2 : vm2 host+ligand conformer 1
         146         151           2
SMALL
USER_CHARGES
 
@<TRIPOS>ATOM
       1    C1      16.167929   14.988627   20.623173 C.3        1 MOL1         0.2972
       2    H1      15.107290   14.876740   20.363265 H          1 MOL1         0.0751
       3    O1      16.508382   16.364037   20.900640 O.3        1 MOL1        -0.3740
       4    C2      16.551531   14.100171   21.833869 C.3        1 MOL1         0.1003
       5    H2      16.422695   13.056202   21.519383 H          1 MOL1         0.0783
       6    O2      15.712606   14.343863   22.972088 O.3        1 MOL1        -0.5519
       7    H3      15.866808   15.281775   23.250602 H          1 MOL1         0.3769
       8    C3      18.041366   14.306104   22.198554 C.3        1 MOL1         0.1053
       9    H4      18.158010   15.331104   22.578130 H          1 MOL1         0.0783
      10    O3      18.401100   13.368237   23.219090 O.3        1 MOL1        -0.5519
      11    H5      17.624651   13.339754   23.823675 H          1 MOL1         0.3769
      12    C4      18.967146   14.142408   20.958424 C.3        1 MOL1         0.1018
      13    H6      19.124041   13.074948   20.753286 H          1 MOL1         0.0783
      14    C5      18.411559   14.817561   19.673866 C.3        1 MOL1         0.1043
      15    H7      18.578782   15.898002   19.747567 H          1 MOL1         0.0783
      16    O4      16.995615   14.546644   19.528503 O.3        1 MOL1        -0.3740
      17    C6      19.122922   14.311996   18.402023 C.3        1 MOL1         0.0138
      18    H8      18.912027   13.242502   18.268460 H          1 MOL1         0.0794
      19    H9      20.208289   14.426113   18.525939 H          1 MOL1         0.0794
      20    O5      18.680519   15.057164   17.265650 O.3        1 MOL1        -0.5486
      21    H10     17.699590   14.993815   17.263831 H          1 MOL1         0.3769
      22    C7      15.028077   20.094670   21.807274 C.3        1 MOL1         0.2972
      23    H11     14.425130   20.968099   22.085515 H          1 MOL1         0.0751
      24    O6      16.299903   20.481535   21.245154 O.3        1 MOL1        -0.3740
      25    C8      15.280247   19.200093   23.047255 C.3        1 MOL1         0.1003
      26    H12     14.298604   18.880967   23.421083 H          1 MOL1         0.0783
      27    O7      15.970483   19.918579   24.082830 O.3        1 MOL1        -0.5519
      28    H13     15.838494   20.880934   23.904439 H          1 MOL1         0.3769
      29    C9      16.084923   17.938528   22.660661 C.3        1 MOL1         0.1053
      30    H14     17.096351   18.258929   22.388537 H          1 MOL1         0.0783
      31    O8      16.153005   17.067653   23.792562 O.3        1 MOL1        -0.5519
      32    H15     16.389633   17.657713   24.543539 H          1 MOL1         0.3769
      33    C10     15.470213   17.201834   21.442125 C.3        1 MOL1         0.1018
      34    H16     14.602449   16.619506   21.779576 H          1 MOL1         0.0783
      35    C11     15.052711   18.168826   20.298401 C.3        1 MOL1         0.1043
      36    H17     15.964097   18.524900   19.800884 H          1 MOL1         0.0783
      37    O9      14.322582   19.299611   20.831945 O.3        1 MOL1        -0.3740
      38    C12     14.169064   17.498417   19.223061 C.3        1 MOL1         0.0138
      39    H18     14.748557   16.710173   18.724334 H          1 MOL1         0.0794
      40    H19     13.911361   18.245905   18.460820 H          1 MOL1         0.0794
      41    O10     12.981622   16.946946   19.799292 O.3        1 MOL1        -0.5486
      42    H20     12.521839   17.690787   20.248674 H          1 MOL1         0.3769
      43    C13     18.535048   23.982151   20.850517 C.3        1 MOL1         0.2972
      44    H21     18.895727   24.988274   20.600013 H          1 MOL1         0.0751
      45    O11     19.600694   23.131787   21.311973 O.3        1 MOL1        -0.3740
      46    C14     17.446229   24.035886   21.952037 C.3        1 MOL1         0.1003
      47    H22     16.614568   24.633592   21.556728 H          1 MOL1         0.0783
      48    O12     17.938808   24.657223   23.149946 O.3        1 MOL1        -0.5519
      49    H23     18.767210   24.182103   23.414148 H          1 MOL1         0.3769
      50    C15     16.907587   22.616833   22.261721 C.3        1 MOL1         0.1053
      51    H24     17.719565   22.036294   22.721433 H          1 MOL1         0.0783
      52    O13     15.817182   22.736023   23.182251 O.3        1 MOL1        -0.5519
      53    H25     16.098262   23.434382   23.816875 H          1 MOL1         0.3769
      54    C16     16.468114   21.884867   20.960079 C.3        1 MOL1         0.1018
      55    H26     15.536985   22.326836   20.580910 H          1 MOL1         0.0783
      56    C17     17.549793   21.978280   19.851391 C.3        1 MOL1         0.1043
      57    H27     18.409420   21.364762   20.146846 H          1 MOL1         0.0783
      58    O14     17.948425   23.361334   19.687506 O.3        1 MOL1        -0.3740
      59    C18     17.042207   21.472028   18.484220 C.3        1 MOL1         0.0138
      60    H28     16.216163   22.111243   18.144951 H          1 MOL1         0.0794
      61    H29     16.649893   20.453279   18.598195 H          1 MOL1         0.0794
      62    O15     18.108527   21.480642   17.530439 O.3        1 MOL1        -0.5486
      63    H30     18.462953   22.397851   17.535950 H          1 MOL1         0.3769
      64    C19     23.593910   22.889410   22.064662 C.3        1 MOL1         0.2972
      65    H31     24.665423   22.994616   22.278490 H          1 MOL1         0.0751
      66    O16     23.256092   21.550735   21.645842 O.3        1 MOL1        -0.3740
      67    C20     22.759104   23.243128   23.319719 C.3        1 MOL1         0.1003
      68    H32     22.939886   24.301367   23.549180 H          1 MOL1         0.0783
      69    O17     23.146767   22.442135   24.447173 O.3        1 MOL1        -0.5519
      70    H33     23.727917   21.717936   24.105982 H          1 MOL1         0.3769
      71    C21     21.252122   23.065069   23.030994 C.3        1 MOL1         0.1053
      72    H34     21.067944   21.992001   22.913272 H          1 MOL1         0.0783
      73    O18     20.490180   23.553811   24.138606 O.3        1 MOL1        -0.5519
      74    H35     20.938840   23.186441   24.933079 H          1 MOL1         0.3769
      75    C22     20.812972   23.785105   21.729014 C.3        1 MOL1         0.1018
      76    H36     20.651197   24.847080   21.957595 H          1 MOL1         0.0783
      77    C23     21.823418   23.636565   20.553071 C.3        1 MOL1         0.1043
      78    H37     21.698894   22.633015   20.125324 H          1 MOL1         0.0783
      79    O19     23.187531   23.795728   21.019275 O.3        1 MOL1        -0.3740
      80    C24     21.593927   24.651548   19.411351 C.3        1 MOL1         0.0138
      81    H38     20.613431   24.462853   18.954770 H          1 MOL1         0.0794
      82    H39     22.351803   24.485813   18.633930 H          1 MOL1         0.0794
      83    O20     21.663386   25.996395   19.893376 O.3        1 MOL1        -0.5486
      84    H40     22.550339   26.096642   20.305577 H          1 MOL1         0.3769
      85    C25     24.886733   17.817862   20.888707 C.3        1 MOL1         0.2972
      86    H41     25.525496   16.973677   20.598840 H          1 MOL1         0.0751
      87    O21     23.524642   17.393157   21.106302 O.3        1 MOL1        -0.3740
      88    C26     25.443015   18.528030   22.155723 C.3        1 MOL1         0.1003
      89    H42     26.445909   18.894528   21.900696 H          1 MOL1         0.0783
      90    O22     25.549319   17.639080   23.277617 O.3        1 MOL1        -0.5519
      91    H43     24.626906   17.367080   23.515169 H          1 MOL1         0.3769
      92    C27     24.573255   19.751495   22.528686 C.3        1 MOL1         0.1053
      93    H44     23.591359   19.381404   22.854608 H          1 MOL1         0.0783
      94    O23     25.196852   20.471322   23.596505 O.3        1 MOL1        -0.5519
      95    H45     25.517772   19.780357   24.219100 H          1 MOL1         0.3769
      96    C28     24.357259   20.687319   21.312181 C.3        1 MOL1         0.1018
      97    H46     25.276439   21.252221   21.106593 H          1 MOL1         0.0783
      98    C29     23.950695   19.910888   20.033025 C.3        1 MOL1         0.1043
      99    H47     22.924123   19.548642   20.155641 H          1 MOL1         0.0783
     100    O24     24.860104   18.800229   19.831672 O.3        1 MOL1        -0.3740
     101    C30     23.996378   20.789560   18.766617 C.3        1 MOL1         0.0138
     102    H48     25.039953   21.041913   18.535472 H          1 MOL1         0.0794
     103    H49     23.460832   21.728653   18.954094 H          1 MOL1         0.0794
     104    O25     23.389131   20.095147   17.674738 O.3        1 MOL1        -0.5486
     105    H50     23.863363   19.238007   17.597122 H          1 MOL1         0.3769
     106    C31     21.208744   14.054392   21.949784 C.3        1 MOL1         0.2972
     107    H51     20.829097   13.069749   22.251522 H          1 MOL1         0.0751
     108    O26     20.211189   14.813772   21.238629 O.3        1 MOL1        -0.3740
     109    C32     21.675500   14.859371   23.192200 C.3        1 MOL1         0.1003
     110    H52     22.472736   14.277640   23.673049 H          1 MOL1         0.0783
     111    O27     20.608909   15.064021   24.132732 O.3        1 MOL1        -0.5519
     112    H53     19.906058   14.401289   23.927993 H          1 MOL1         0.3769
     113    C33     22.260922   16.225567   22.772436 C.3        1 MOL1         0.1053
     114    H54     21.437656   16.826917   22.369424 H          1 MOL1         0.0783
     115    O28     22.816603   16.870462   23.922769 O.3        1 MOL1        -0.5519
     116    H55     22.132556   16.758372   24.620770 H          1 MOL1         0.3769
     117    C34     23.334805   16.078545   21.667115 C.3        1 MOL1         0.1018
     118    H56     24.254725   15.686402   22.119970 H          1 MOL1         0.0783
     119    C35     22.876429   15.136424   20.518611 C.3        1 MOL1         0.1043
     120    H57     22.095788   15.649310   19.940978 H          1 MOL1         0.0783
     121    O29     22.346680   13.905418   21.073472 O.3        1 MOL1        -0.3740
     122    C36     24.009565   14.761780   19.537422 C.3        1 MOL1         0.0138
     123    H58     24.340083   15.666625   19.010523 H          1 MOL1         0.0794
     124    H59     23.608793   14.073261   18.781446 H          1 MOL1         0.0794
     125    O30     25.111742   14.159976   20.222453 O.3        1 MOL1        -0.5486
     126    H60     24.751506   13.371557   20.686276 H          1 MOL1         0.3769
     127    N1      19.295812   18.862532   16.879964 N.4        1 MOL1        -0.5919
     128    H1      18.945137   19.835228   16.894730 H          1 MOL1         0.3682
     129    H2      20.268843   18.891046   16.560677 H          1 MOL1         0.3682
     130    H3      18.752809   18.355653   16.174303 H          1 MOL1         0.3682
     131    C1      19.165047   18.233724   18.249283 C.3        1 MOL1         0.0252
     132    H4      19.428381   17.175576   18.172819 H          1 MOL1         0.0971
     133    H5      18.114964   18.309163   18.543870 H          1 MOL1         0.0971
     134    C2      20.051035   18.917835   19.302906 C.3        1 MOL1        -0.1369
     135    H6      21.087181   18.573974   19.187580 H          1 MOL1         0.0997
     136    H7      20.053680   20.001812   19.126481 H          1 MOL1         0.0997
     137    C3      19.545133   18.638412   20.733588 C.3        1 MOL1        -0.1329
     138    H8      19.596836   17.563790   20.952868 H          1 MOL1         0.0997
     139    H9      18.488643   18.927098   20.796821 H          1 MOL1         0.0997
     140    C4      20.350782   19.425400   21.787277 C.3        1 MOL1        -0.1305
     141    H10     21.394955   19.088386   21.786537 H          1 MOL1         0.0997
     142    H11     20.362489   20.487450   21.513359 H          1 MOL1         0.0997
     143    C5      19.763392   19.266480   23.205296 C.3        1 MOL1        -0.2320
     144    H12     19.702075   18.208964   23.494969 H          1 MOL1         0.1008
     145    H13     20.391347   19.781393   23.943847 H          1 MOL1         0.1008
     146    H14     18.755616   19.697477   23.265650 H          1 MOL1         0.1008
@<TRIPOS>BOND
    1     1     2    1
    2     1     3    1
    3     1     4    1
    4     4     5    1
    5     4     6    1
    6     6     7    1
    7     4     8    1
    8     8     9    1
    9     8    10    1
   10    10    11    1
   11     8    12    1
   12    12    13    1
   13    12    14    1
   14    14    15    1
   15     1    16    1
   16    14    16    1
   17    14    17    1
   18    17    18    1
   19    17    19    1
   20    17    20    1
   21    20    21    1
   22    22    23    1
   23    22    24    1
   24    22    25    1
   25    25    26    1
   26    25    27    1
   27    27    28    1
   28    25    29    1
   29    29    30    1
   30    29    31    1
   31    31    32    1
   32     3    33    1
   33    29    33    1
   34    33    34    1
   35    33    35    1
   36    35    36    1
   37    22    37    1
   38    35    37    1
   39    35    38    1
   40    38    39    1
   41    38    40    1
   42    38    41    1
   43    41    42    1
   44    43    44    1
   45    43    45    1
   46    43    46    1
   47    46    47    1
   48    46    48    1
   49    48    49    1
   50    46    50    1
   51    50    51    1
   52    50    52    1
   53    52    53    1
   54    24    54    1
   55    50    54    1
   56    54    55    1
   57    54    56    1
   58    56    57    1
   59    43    58    1
   60    56    58    1
   61    56    59    1
   62    59    60    1
   63    59    61    1
   64    59    62    1
   65    62    63    1
   66    64    65    1
   67    64    66    1
   68    64    67    1
   69    67    68    1
   70    67    69    1
   71    69    70    1
   72    67    71    1
   73    71    72    1
   74    71    73    1
   75    73    74    1
   76    45    75    1
   77    71    75    1
   78    75    76    1
   79    75    77    1
   80    77    78    1
   81    64    79    1
   82    77    79    1
   83    77    80    1
   84    80    81    1
   85    80    82    1
   86    80    83    1
   87    83    84    1
   88    85    86    1
   89    85    87    1
   90    85    88    1
   91    88    89    1
   92    88    90    1
   93    90    91    1
   94    88    92    1
   95    92    93    1
   96    92    94    1
   97    94    95    1
   98    66    96    1
   99    92    96    1
  100    96    97    1
  101    96    98    1
  102    98    99    1
  103    85   100    1
  104    98   100    1
  105    98   101    1
  106   101   102    1
  107   101   103    1
  108   101   104    1
  109   104   105    1
  110   106   107    1
  111    12   108    1
  112   106   108    1
  113   106   109    1
  114   109   110    1
  115   109   111    1
  116   111   112    1
  117   109   113    1
  118   113   114    1
  119   113   115    1
  120   115   116    1
  121    87   117    1
  122   113   117    1
  123   117   118    1
  124   117   119    1
  125   119   120    1
  126   106   121    1
  127   119   121    1
  128   119   122    1
  129   122   123    1
  130   122   124    1
  131   122   125    1
  132   125   126    1
  133   127   128    1
  134   127   129    1
  135   127   130    1
  136   127   131    1
  137   131   132    1
  138   131   133    1
  139   131   134    1
  140   134   135    1
  141   134   136    1
  142   134   137    1
  143   137   138    1
  144   137   139    1
  145   137   140    1
  146   140   141    1
  147   140   142    1
  148   140   143    1
  149   143   144    1
  150   143   145    1
  151   143   146    1
@<TRIPOS>SUBSTRUCTURE
       1 MOL1            1 RESIDUE      1      MOL     
       2 MOL1          146 RESIDUE      1      MOL     
@<SCITEGIC>MOL_PROPERTY
VM2 Rank
SciTegic.value.IntegerValue
1

@<SCITEGIC>MOL_PROPERTY
Conf_Id
SciTegic.value.IntegerValue
21921

@<SCITEGIC>MOL_PROPERTY
Probability
SciTegic.value.DoubleValue
2.95

@<SCITEGIC>MOL_PROPERTY
Sum Probability
SciTegic.value.DoubleValue
2.95

@<SCITEGIC>MOL_PROPERTY
Delta G
SciTegic.value.DoubleValue
0.000

@<SCITEGIC>MOL_PROPERTY
G
SciTegic.value.DoubleValue
547.799

@<SCITEGIC>MOL_PROPERTY
E
SciTegic.value.DoubleValue
354.410

@<SCITEGIC>MOL_PROPERTY
-TS
SciTegic.value.DoubleValue
193.389

@<SCITEGIC>MOL_PROPERTY
U+W
SciTegic.value.DoubleValue
225.639

@<SCITEGIC>MOL_PROPERTY
U
SciTegic.value.DoubleValue
295.442

@<SCITEGIC>MOL_PROPERTY
W
SciTegic.value.DoubleValue
-69.803

@<SCITEGIC>MOL_PROPERTY
W(PB)
SciTegic.value.DoubleValue
-75.744

@<SCITEGIC>MOL_PROPERTY
W(SA)
SciTegic.value.DoubleValue
5.942

@<SCITEGIC>MOL_PROPERTY
Valence
SciTegic.value.DoubleValue
145.579

@<SCITEGIC>MOL_PROPERTY
Coulomb
SciTegic.value.DoubleValue
173.931

@<SCITEGIC>MOL_PROPERTY
VdW
SciTegic.value.DoubleValue
-24.069

@<SCITEGIC>MOL_PROPERTY
VdW6
SciTegic.value.DoubleValue
-173.760

@<SCITEGIC>MOL_PROPERTY
VdW12
SciTegic.value.DoubleValue
149.692

@<SCITEGIC>MOL_PROPERTY
Bond
SciTegic.value.DoubleValue
4.330

@<SCITEGIC>MOL_PROPERTY
Angle
SciTegic.value.DoubleValue
9.923

@<SCITEGIC>MOL_PROPERTY
Pdih
SciTegic.value.DoubleValue
131.327

@<SCITEGIC>MOL_PROPERTY
Idih
SciTegic.value.DoubleValue
0.000

@<SCITEGIC>MOL_PROPERTY
Tether
SciTegic.value.DoubleValue
0.000

