@<TRIPOS>MOLECULE
CD_guest-s10_vm2_single.mol2 : vm2 host+ligand conformer 1
         146         151           2
SMALL
USER_CHARGES
 
@<TRIPOS>ATOM
       1    C1      16.165503   15.093537   20.988768 C.3        1 MOL1         0.2972
       2    H1      15.083578   14.962157   20.858057 H          1 MOL1         0.0751
       3    O1      16.501272   16.453089   21.334133 O.3        1 MOL1        -0.3740
       4    C2      16.709788   14.151692   22.093212 C.3        1 MOL1         0.1003
       5    H2      16.520087   13.120266   21.768464 H          1 MOL1         0.0783
       6    O2      16.060897   14.375783   23.350985 O.3        1 MOL1        -0.5519
       7    H3      16.557643   13.815371   23.989322 H          1 MOL1         0.3769
       8    C3      18.237375   14.328944   22.253939 C.3        1 MOL1         0.1053
       9    H4      18.426575   15.338453   22.642187 H          1 MOL1         0.0783
      10    O3      18.738149   13.353646   23.175465 O.3        1 MOL1        -0.5519
      11    H5      19.716076   13.486181   23.223597 H          1 MOL1         0.3769
      12    C4      18.965794   14.188681   20.894424 C.3        1 MOL1         0.1018
      13    H6      18.993252   13.125567   20.621439 H          1 MOL1         0.0783
      14    C5      18.283094   14.998280   19.757132 C.3        1 MOL1         0.1043
      15    H7      18.479154   16.065432   19.921706 H          1 MOL1         0.0783
      16    O4      16.853448   14.761329   19.764132 O.3        1 MOL1        -0.3740
      17    C6      18.811011   14.630880   18.352521 C.3        1 MOL1         0.0138
      18    H8      19.883107   14.861038   18.299074 H          1 MOL1         0.0794
      19    H9      18.303418   15.259638   17.608899 H          1 MOL1         0.0794
      20    O5      18.588998   13.246861   18.065804 O.3        1 MOL1        -0.5486
      21    H10     17.623912   13.096032   18.177592 H          1 MOL1         0.3769
      22    C7      14.916851   20.193736   22.004852 C.3        1 MOL1         0.2972
      23    H11     14.287855   21.068128   22.215446 H          1 MOL1         0.0751
      24    O6      16.240457   20.581170   21.578278 O.3        1 MOL1        -0.3740
      25    C8      15.027029   19.310934   23.270541 C.3        1 MOL1         0.1003
      26    H12     14.011987   18.979174   23.525414 H          1 MOL1         0.0783
      27    O7      15.572041   20.044100   24.376134 O.3        1 MOL1        -0.5519
      28    H13     15.696046   19.368951   25.079223 H          1 MOL1         0.3769
      29    C9      15.880142   18.053935   22.994754 C.3        1 MOL1         0.1053
      30    H14     16.914287   18.374114   22.825963 H          1 MOL1         0.0783
      31    O8      15.814800   17.185569   24.131166 O.3        1 MOL1        -0.5519
      32    H15     16.050017   16.279326   23.814773 H          1 MOL1         0.3769
      33    C10     15.405322   17.300846   21.728104 C.3        1 MOL1         0.1018
      34    H16     14.505751   16.723565   21.981071 H          1 MOL1         0.0783
      35    C11     15.114081   18.248931   20.530233 C.3        1 MOL1         0.1043
      36    H17     16.075356   18.596844   20.130415 H          1 MOL1         0.0783
      37    O9      14.327871   19.387876   20.962628 O.3        1 MOL1        -0.3740
      38    C12     14.350889   17.560128   19.377049 C.3        1 MOL1         0.0138
      39    H18     14.976745   16.760175   18.959670 H          1 MOL1         0.0794
      40    H19     14.182302   18.293413   18.577053 H          1 MOL1         0.0794
      41    O10     13.104265   17.024845   19.830722 O.3        1 MOL1        -0.5486
      42    H20     12.604310   17.779132   20.215101 H          1 MOL1         0.3769
      43    C13     18.427664   24.064897   20.873105 C.3        1 MOL1         0.2972
      44    H21     18.734560   25.077099   20.581120 H          1 MOL1         0.0751
      45    O11     19.555551   23.241337   21.227346 O.3        1 MOL1        -0.3740
      46    C14     17.473725   24.123226   22.093474 C.3        1 MOL1         0.1003
      47    H22     16.603437   24.726062   21.803112 H          1 MOL1         0.0783
      48    O12     18.114756   24.729658   23.224950 O.3        1 MOL1        -0.5519
      49    H23     17.487487   24.589707   23.969650 H          1 MOL1         0.3769
      50    C15     16.972346   22.709359   22.472037 C.3        1 MOL1         0.1053
      51    H24     17.831804   22.136239   22.843551 H          1 MOL1         0.0783
      52    O13     15.980257   22.816549   23.499905 O.3        1 MOL1        -0.5519
      53    H25     15.838923   21.901871   23.850222 H          1 MOL1         0.3769
      54    C16     16.396676   21.971325   21.234003 C.3        1 MOL1         0.1018
      55    H26     15.439369   22.426250   20.945604 H          1 MOL1         0.0783
      56    C17     17.354607   22.039123   20.017286 C.3        1 MOL1         0.1043
      57    H27     18.243192   21.427611   20.223094 H          1 MOL1         0.0783
      58    O14     17.724964   23.420756   19.789552 O.3        1 MOL1        -0.3740
      59    C18     16.689475   21.520682   18.725371 C.3        1 MOL1         0.0138
      60    H28     15.833262   22.161420   18.475226 H          1 MOL1         0.0794
      61    H29     16.307042   20.506457   18.895081 H          1 MOL1         0.0794
      62    O15     17.637945   21.510257   17.656859 O.3        1 MOL1        -0.5486
      63    H30     17.979553   22.428758   17.588322 H          1 MOL1         0.3769
      64    C19     23.641430   22.873425   21.053509 C.3        1 MOL1         0.2972
      65    H31     24.727581   22.967892   20.926662 H          1 MOL1         0.0751
      66    O16     23.251975   21.504301   21.291537 O.3        1 MOL1        -0.3740
      67    C20     23.129436   23.776491   22.206912 C.3        1 MOL1         0.1003
      68    H32     23.328489   24.816793   21.917761 H          1 MOL1         0.0783
      69    O17     23.793871   23.504202   23.446552 O.3        1 MOL1        -0.5519
      70    H33     23.333925   24.071553   24.106419 H          1 MOL1         0.3769
      71    C21     21.601341   23.617091   22.378329 C.3        1 MOL1         0.1053
      72    H34     21.398487   22.595129   22.726021 H          1 MOL1         0.0783
      73    O18     21.120636   24.561726   23.342466 O.3        1 MOL1        -0.5519
      74    H35     20.132874   24.504631   23.328560 H          1 MOL1         0.3769
      75    C22     20.856643   23.825888   21.037316 C.3        1 MOL1         0.1018
      76    H36     20.803488   24.903903   20.835498 H          1 MOL1         0.0783
      77    C23     21.527449   23.100635   19.835643 C.3        1 MOL1         0.1043
      78    H37     21.309691   22.027017   19.913353 H          1 MOL1         0.0783
      79    O19     22.962912   23.310325   19.857274 O.3        1 MOL1        -0.3740
      80    C24     21.006633   23.585138   18.464523 C.3        1 MOL1         0.0138
      81    H38     19.935074   23.362939   18.388798 H          1 MOL1         0.0794
      82    H39     21.514369   23.017359   17.673413 H          1 MOL1         0.0794
      83    O20     21.233015   24.987248   18.292195 O.3        1 MOL1        -0.5486
      84    H40     22.199494   25.125139   18.408356 H          1 MOL1         0.3769
      85    C25     24.629378   17.770037   22.347447 C.3        1 MOL1         0.2972
      86    H41     25.197397   16.905914   22.713636 H          1 MOL1         0.0751
      87    O21     23.504689   17.362012   21.540359 O.3        1 MOL1        -0.3740
      88    C26     24.100086   18.606366   23.540943 C.3        1 MOL1         0.1003
      89    H42     24.971099   18.913183   24.133977 H          1 MOL1         0.0783
      90    O22     23.228701   17.802887   24.359178 O.3        1 MOL1        -0.5519
      91    H43     23.509011   16.864425   24.234070 H          1 MOL1         0.3769
      92    C27     23.379189   19.889333   23.045407 C.3        1 MOL1         0.1053
      93    H44     22.437797   19.582558   22.574416 H          1 MOL1         0.0783
      94    O23     23.108316   20.767734   24.146911 O.3        1 MOL1        -0.5519
      95    H45     23.265186   21.686642   23.821086 H          1 MOL1         0.3769
      96    C28     24.197213   20.660538   21.977389 C.3        1 MOL1         0.1018
      97    H46     24.980892   21.242694   22.480819 H          1 MOL1         0.0783
      98    C29     24.831611   19.731546   20.906204 C.3        1 MOL1         0.1043
      99    H47     24.032143   19.363998   20.249518 H          1 MOL1         0.0783
     100    O24     25.484759   18.613150   21.549222 O.3        1 MOL1        -0.3740
     101    C30     25.876400   20.439381   20.014640 C.3        1 MOL1         0.0138
     102    H48     25.374314   21.215418   19.421940 H          1 MOL1         0.0794
     103    H49     26.290729   19.707414   19.308328 H          1 MOL1         0.0794
     104    O25     26.922544   21.018424   20.799912 O.3        1 MOL1        -0.5486
     105    H50     27.313612   20.283298   21.322734 H          1 MOL1         0.3769
     106    C31     21.392849   13.880197   20.742788 C.3        1 MOL1         0.2972
     107    H51     21.059405   12.882379   20.431305 H          1 MOL1         0.0751
     108    O26     20.283874   14.738239   21.082716 O.3        1 MOL1        -0.3740
     109    C32     22.328180   13.780243   21.974714 C.3        1 MOL1         0.1003
     110    H52     23.211794   13.203308   21.670964 H          1 MOL1         0.0783
     111    O27     21.683531   13.116316   23.075896 O.3        1 MOL1        -0.5519
     112    H53     21.647406   12.159398   22.861168 H          1 MOL1         0.3769
     113    C33     22.806348   15.187525   22.404626 C.3        1 MOL1         0.1053
     114    H54     21.930469   15.751326   22.753556 H          1 MOL1         0.0783
     115    O28     23.742373   15.038403   23.478332 O.3        1 MOL1        -0.5519
     116    H55     23.346090   14.346603   24.055999 H          1 MOL1         0.3769
     117    C34     23.434716   15.959883   21.208266 C.3        1 MOL1         0.1018
     118    H56     24.431729   15.554782   20.989981 H          1 MOL1         0.0783
     119    C35     22.561578   15.871119   19.925806 C.3        1 MOL1         0.1043
     120    H57     21.676440   16.503685   20.066408 H          1 MOL1         0.0783
     121    O29     22.146937   14.504124   19.684023 O.3        1 MOL1        -0.3740
     122    C36     23.298298   16.366327   18.661408 C.3        1 MOL1         0.0138
     123    H58     23.605535   17.409925   18.810031 H          1 MOL1         0.0794
     124    H59     22.599085   16.345663   17.814891 H          1 MOL1         0.0794
     125    O30     24.440050   15.551787   18.379695 O.3        1 MOL1        -0.5486
     126    H60     24.110453   14.626186   18.341433 H          1 MOL1         0.3769
     127    N1      21.120865   19.297673   25.590540 N.4        1 MOL1        -0.5937
     128    H1      21.547697   18.457620   25.173688 H          1 MOL1         0.3684
     129    H2      21.254802   19.243212   26.601828 H          1 MOL1         0.3684
     130    H3      21.710923   20.068819   25.239987 H          1 MOL1         0.3684
     131    C1      19.677831   19.471536   25.207534 C.3        1 MOL1         0.1270
     132    H4      19.353306   20.399726   25.687965 H          1 MOL1         0.0960
     133    C2      18.816913   18.330545   25.775665 C.3        1 MOL1        -0.2382
     134    H5      19.140517   17.351624   25.402378 H          1 MOL1         0.1009
     135    H6      17.763511   18.469412   25.508831 H          1 MOL1         0.1009
     136    H7      18.881400   18.309291   26.870068 H          1 MOL1         0.1009
     137    C3      19.480351   19.657277   23.683964 C.3        1 MOL1        -0.1392
     138    H8      18.442130   19.963240   23.503770 H          1 MOL1         0.0998
     139    H9      20.102784   20.498783   23.351979 H          1 MOL1         0.0998
     140    C4      19.798619   18.410262   22.818822 C.3        1 MOL1        -0.1302
     141    H10     19.123092   17.584962   23.077694 H          1 MOL1         0.0998
     142    H11     20.817043   18.053825   23.019496 H          1 MOL1         0.0998
     143    C5      19.652932   18.720459   21.314231 C.3        1 MOL1        -0.2317
     144    H12     18.629540   19.036906   21.074137 H          1 MOL1         0.1009
     145    H13     19.878706   17.830963   20.714782 H          1 MOL1         0.1009
     146    H14     20.340806   19.519302   21.007032 H          1 MOL1         0.1009
@<TRIPOS>BOND
    1     1     2    1
    2     1     3    1
    3     1     4    1
    4     4     5    1
    5     4     6    1
    6     6     7    1
    7     4     8    1
    8     8     9    1
    9     8    10    1
   10    10    11    1
   11     8    12    1
   12    12    13    1
   13    12    14    1
   14    14    15    1
   15     1    16    1
   16    14    16    1
   17    14    17    1
   18    17    18    1
   19    17    19    1
   20    17    20    1
   21    20    21    1
   22    22    23    1
   23    22    24    1
   24    22    25    1
   25    25    26    1
   26    25    27    1
   27    27    28    1
   28    25    29    1
   29    29    30    1
   30    29    31    1
   31    31    32    1
   32     3    33    1
   33    29    33    1
   34    33    34    1
   35    33    35    1
   36    35    36    1
   37    22    37    1
   38    35    37    1
   39    35    38    1
   40    38    39    1
   41    38    40    1
   42    38    41    1
   43    41    42    1
   44    43    44    1
   45    43    45    1
   46    43    46    1
   47    46    47    1
   48    46    48    1
   49    48    49    1
   50    46    50    1
   51    50    51    1
   52    50    52    1
   53    52    53    1
   54    24    54    1
   55    50    54    1
   56    54    55    1
   57    54    56    1
   58    56    57    1
   59    43    58    1
   60    56    58    1
   61    56    59    1
   62    59    60    1
   63    59    61    1
   64    59    62    1
   65    62    63    1
   66    64    65    1
   67    64    66    1
   68    64    67    1
   69    67    68    1
   70    67    69    1
   71    69    70    1
   72    67    71    1
   73    71    72    1
   74    71    73    1
   75    73    74    1
   76    45    75    1
   77    71    75    1
   78    75    76    1
   79    75    77    1
   80    77    78    1
   81    64    79    1
   82    77    79    1
   83    77    80    1
   84    80    81    1
   85    80    82    1
   86    80    83    1
   87    83    84    1
   88    85    86    1
   89    85    87    1
   90    85    88    1
   91    88    89    1
   92    88    90    1
   93    90    91    1
   94    88    92    1
   95    92    93    1
   96    92    94    1
   97    94    95    1
   98    66    96    1
   99    92    96    1
  100    96    97    1
  101    96    98    1
  102    98    99    1
  103    85   100    1
  104    98   100    1
  105    98   101    1
  106   101   102    1
  107   101   103    1
  108   101   104    1
  109   104   105    1
  110   106   107    1
  111    12   108    1
  112   106   108    1
  113   106   109    1
  114   109   110    1
  115   109   111    1
  116   111   112    1
  117   109   113    1
  118   113   114    1
  119   113   115    1
  120   115   116    1
  121    87   117    1
  122   113   117    1
  123   117   118    1
  124   117   119    1
  125   119   120    1
  126   106   121    1
  127   119   121    1
  128   119   122    1
  129   122   123    1
  130   122   124    1
  131   122   125    1
  132   125   126    1
  133   127   128    1
  134   127   129    1
  135   127   130    1
  136   127   131    1
  137   131   132    1
  138   131   133    1
  139   133   134    1
  140   133   135    1
  141   133   136    1
  142   131   137    1
  143   137   138    1
  144   137   139    1
  145   137   140    1
  146   140   141    1
  147   140   142    1
  148   140   143    1
  149   143   144    1
  150   143   145    1
  151   143   146    1
@<TRIPOS>SUBSTRUCTURE
       1 MOL1            1 RESIDUE      1      MOL     
       2 MOL1          146 RESIDUE      1      MOL     
@<SCITEGIC>MOL_PROPERTY
VM2 Rank
SciTegic.value.IntegerValue
1

@<SCITEGIC>MOL_PROPERTY
Conf_Id
SciTegic.value.IntegerValue
19075

@<SCITEGIC>MOL_PROPERTY
Probability
SciTegic.value.DoubleValue
1.30

@<SCITEGIC>MOL_PROPERTY
Sum Probability
SciTegic.value.DoubleValue
1.30

@<SCITEGIC>MOL_PROPERTY
Delta G
SciTegic.value.DoubleValue
0.000

@<SCITEGIC>MOL_PROPERTY
G
SciTegic.value.DoubleValue
525.148

@<SCITEGIC>MOL_PROPERTY
E
SciTegic.value.DoubleValue
332.547

@<SCITEGIC>MOL_PROPERTY
-TS
SciTegic.value.DoubleValue
192.602

@<SCITEGIC>MOL_PROPERTY
U+W
SciTegic.value.DoubleValue
203.776

@<SCITEGIC>MOL_PROPERTY
U
SciTegic.value.DoubleValue
277.385

@<SCITEGIC>MOL_PROPERTY
W
SciTegic.value.DoubleValue
-73.609

@<SCITEGIC>MOL_PROPERTY
W(PB)
SciTegic.value.DoubleValue
-79.840

@<SCITEGIC>MOL_PROPERTY
W(SA)
SciTegic.value.DoubleValue
6.231

@<SCITEGIC>MOL_PROPERTY
Valence
SciTegic.value.DoubleValue
145.274

@<SCITEGIC>MOL_PROPERTY
Coulomb
SciTegic.value.DoubleValue
151.514

@<SCITEGIC>MOL_PROPERTY
VdW
SciTegic.value.DoubleValue
-19.403

@<SCITEGIC>MOL_PROPERTY
VdW6
SciTegic.value.DoubleValue
-168.332

@<SCITEGIC>MOL_PROPERTY
VdW12
SciTegic.value.DoubleValue
148.928

@<SCITEGIC>MOL_PROPERTY
Bond
SciTegic.value.DoubleValue
4.266

@<SCITEGIC>MOL_PROPERTY
Angle
SciTegic.value.DoubleValue
10.672

@<SCITEGIC>MOL_PROPERTY
Pdih
SciTegic.value.DoubleValue
130.336

@<SCITEGIC>MOL_PROPERTY
Idih
SciTegic.value.DoubleValue
0.000

@<SCITEGIC>MOL_PROPERTY
Tether
SciTegic.value.DoubleValue
0.000

