@<TRIPOS>MOLECULE
CD_guest-6_vm2_single.mol2 : vm2 host+ligand conformer 1
         139         144           2
SMALL
USER_CHARGES
 
@<TRIPOS>ATOM
       1    C1      16.415105   15.353240   22.143726 C.3        1 MOL1         0.2972
       2    H1      15.382579   15.269961   22.505235 H          1 MOL1         0.0751
       3    O1      16.630753   16.584875   21.420736 O.3        1 MOL1        -0.3740
       4    C2      17.410840   15.294631   23.329789 C.3        1 MOL1         0.1003
       5    H2      17.294626   14.314450   23.809734 H          1 MOL1         0.0783
       6    O2      17.109773   16.322250   24.289321 O.3        1 MOL1        -0.5519
       7    H3      17.948351   16.830356   24.454434 H          1 MOL1         0.3769
       8    C3      18.866865   15.398672   22.809668 C.3        1 MOL1         0.1053
       9    H4      18.996749   16.389748   22.364522 H          1 MOL1         0.0783
      10    O3      19.793171   15.234151   23.890356 O.3        1 MOL1        -0.5519
      11    H5      19.827534   16.119969   24.340719 H          1 MOL1         0.3769
      12    C4      19.154638   14.363292   21.693688 C.3        1 MOL1         0.1018
      13    H6      19.285958   13.373410   22.149558 H          1 MOL1         0.0783
      14    C5      18.026676   14.311121   20.624344 C.3        1 MOL1         0.1043
      15    H7      18.092694   15.220873   20.013105 H          1 MOL1         0.0783
      16    O4      16.727686   14.251716   21.264420 O.3        1 MOL1        -0.3740
      17    C6      18.138552   13.101546   19.669907 C.3        1 MOL1         0.0138
      18    H8      19.063243   13.191887   19.084755 H          1 MOL1         0.0794
      19    H9      17.299956   13.133021   18.961354 H          1 MOL1         0.0794
      20    O5      18.131053   11.867526   20.393440 O.3        1 MOL1        -0.5486
      21    H10     17.298654   11.860441   20.916602 H          1 MOL1         0.3769
      22    C7      14.735930   20.242220   20.781083 C.3        1 MOL1         0.2972
      23    H11     14.023146   21.033710   20.517996 H          1 MOL1         0.0751
      24    O6      16.046998   20.772210   21.063500 O.3        1 MOL1        -0.3740
      25    C8      14.239176   19.472227   22.030087 C.3        1 MOL1         0.1003
      26    H12     13.262784   19.037168   21.780010 H          1 MOL1         0.0783
      27    O7      14.090155   20.349582   23.155284 O.3        1 MOL1        -0.5519
      28    H13     13.926706   19.748573   23.916751 H          1 MOL1         0.3769
      29    C9      15.198093   18.312526   22.390236 C.3        1 MOL1         0.1053
      30    H14     16.149843   18.752827   22.716274 H          1 MOL1         0.0783
      31    O8      14.624448   17.555431   23.462724 O.3        1 MOL1        -0.5519
      32    H15     15.378954   17.077826   23.888742 H          1 MOL1         0.3769
      33    C10     15.475878   17.406845   21.155763 C.3        1 MOL1         0.1018
      34    H16     14.592638   16.791545   20.939145 H          1 MOL1         0.0783
      35    C11     15.830981   18.242509   19.895534 C.3        1 MOL1         0.1043
      36    H17     16.826463   18.683294   20.040476 H          1 MOL1         0.0783
      37    O9      14.852679   19.293246   19.701327 O.3        1 MOL1        -0.3740
      38    C12     15.870624   17.398621   18.602118 C.3        1 MOL1         0.0138
      39    H18     16.619057   16.603303   18.714217 H          1 MOL1         0.0794
      40    H19     16.194554   18.040993   17.772496 H          1 MOL1         0.0794
      41    O10     14.587768   16.832686   18.318111 O.3        1 MOL1        -0.5486
      42    H20     13.953638   17.584127   18.322312 H          1 MOL1         0.3769
      43    C13     18.459954   24.109264   20.752190 C.3        1 MOL1         0.2972
      44    H21     18.909150   25.093937   20.569857 H          1 MOL1         0.0751
      45    O11     19.469784   23.122828   21.052324 O.3        1 MOL1        -0.3740
      46    C14     17.407253   24.180343   21.894008 C.3        1 MOL1         0.1003
      47    H22     16.615886   24.861437   21.555882 H          1 MOL1         0.0783
      48    O12     17.978168   24.709816   23.100149 O.3        1 MOL1        -0.5519
      49    H23     18.559418   23.999924   23.470818 H          1 MOL1         0.3769
      50    C15     16.759384   22.789646   22.129289 C.3        1 MOL1         0.1053
      51    H24     17.524838   22.118694   22.541678 H          1 MOL1         0.0783
      52    O13     15.658364   22.893888   23.041038 O.3        1 MOL1        -0.5519
      53    H25     15.251971   21.994425   23.102208 H          1 MOL1         0.3769
      54    C16     16.239568   22.176408   20.804416 C.3        1 MOL1         0.1018
      55    H26     15.301554   22.679839   20.535732 H          1 MOL1         0.0783
      56    C17     17.244592   22.307091   19.627343 C.3        1 MOL1         0.1043
      57    H27     18.064558   21.595503   19.790265 H          1 MOL1         0.0783
      58    O14     17.767222   23.658918   19.569413 O.3        1 MOL1        -0.3740
      59    C18     16.614443   21.993235   18.252178 C.3        1 MOL1         0.0138
      60    H28     16.261591   20.954042   18.245875 H          1 MOL1         0.0794
      61    H29     17.391625   22.078966   17.481106 H          1 MOL1         0.0794
      62    O15     15.532202   22.884509   17.965969 O.3        1 MOL1        -0.5486
      63    H30     15.900353   23.793101   18.040445 H          1 MOL1         0.3769
      64    C19     23.315945   22.556975   22.448123 C.3        1 MOL1         0.2972
      65    H31     24.317091   22.636366   22.889954 H          1 MOL1         0.0751
      66    O16     23.168505   21.346606   21.674659 O.3        1 MOL1        -0.3740
      67    C20     22.231286   22.578671   23.556135 C.3        1 MOL1         0.1003
      68    H32     22.310283   23.543384   24.073532 H          1 MOL1         0.0783
      69    O17     22.452578   21.521312   24.505584 O.3        1 MOL1        -0.5519
      70    H33     21.613434   20.989993   24.566174 H          1 MOL1         0.3769
      71    C21     20.819238   22.492898   22.926885 C.3        1 MOL1         0.1053
      72    H34     20.723746   21.508568   22.455700 H          1 MOL1         0.0783
      73    O18     19.819196   22.646669   23.941537 O.3        1 MOL1        -0.5519
      74    H35     19.768186   21.762844   24.392938 H          1 MOL1         0.3769
      75    C22     20.614108   23.554267   21.817395 C.3        1 MOL1         0.1018
      76    H36     20.454268   24.533629   22.286641 H          1 MOL1         0.0783
      77    C23     21.817621   23.629290   20.836134 C.3        1 MOL1         0.1043
      78    H37     21.800817   22.732035   20.203333 H          1 MOL1         0.0783
      79    O19     23.063812   23.679279   21.575147 O.3        1 MOL1        -0.3740
      80    C24     21.773043   24.858237   19.901079 C.3        1 MOL1         0.0138
      81    H38     20.893884   24.778974   19.248041 H          1 MOL1         0.0794
      82    H39     22.661444   24.842294   19.255513 H          1 MOL1         0.0794
      83    O20     21.724142   26.077156   20.648233 O.3        1 MOL1        -0.5486
      84    H40     22.514851   26.073463   21.232552 H          1 MOL1         0.3769
      85    C25     25.099582   17.699161   21.114701 C.3        1 MOL1         0.2972
      86    H41     25.825642   16.905520   20.898755 H          1 MOL1         0.0751
      87    O21     23.762813   17.178989   21.263667 O.3        1 MOL1        -0.3740
      88    C26     25.489422   18.437575   22.419012 C.3        1 MOL1         0.1003
      89    H42     26.483252   18.876485   22.261364 H          1 MOL1         0.0783
      90    O22     25.545953   17.536867   23.533540 O.3        1 MOL1        -0.5519
      91    H43     25.637065   18.122925   24.318553 H          1 MOL1         0.3769
      92    C27     24.504851   19.591324   22.722956 C.3        1 MOL1         0.1053
      93    H44     23.523459   19.151285   22.950509 H          1 MOL1         0.0783
      94    O23     24.988095   20.316563   23.860250 O.3        1 MOL1        -0.5519
      95    H45     24.200234   20.782025   24.236356 H          1 MOL1         0.3769
      96    C28     24.343949   20.530535   21.493453 C.3        1 MOL1         0.1018
      97    H46     25.243072   21.150314   21.379216 H          1 MOL1         0.0783
      98    C29     24.110580   19.733117   20.180199 C.3        1 MOL1         0.1043
      99    H47     23.102261   19.300570   20.211065 H          1 MOL1         0.0783
     100    O24     25.092118   18.674626   20.051983 O.3        1 MOL1        -0.3740
     101    C30     24.206801   20.614130   18.914981 C.3        1 MOL1         0.0138
     102    H48     23.459662   21.416222   18.977884 H          1 MOL1         0.0794
     103    H49     23.958426   20.000395   18.038917 H          1 MOL1         0.0794
     104    O25     25.517513   21.170057   18.774429 O.3        1 MOL1        -0.5486
     105    H50     26.139748   20.409897   18.817348 H          1 MOL1         0.3769
     106    C31     21.375115   13.842536   20.757293 C.3        1 MOL1         0.2972
     107    H51     20.942048   12.860140   20.529443 H          1 MOL1         0.0751
     108    O26     20.346254   14.818139   21.021401 O.3        1 MOL1        -0.3740
     109    C32     22.357548   13.753350   21.958180 C.3        1 MOL1         0.1003
     110    H52     23.167892   13.077050   21.657495 H          1 MOL1         0.0783
     111    O27     21.713999   13.205650   23.119053 O.3        1 MOL1        -0.5519
     112    H53     21.104928   13.907023   23.460281 H          1 MOL1         0.3769
     113    C33     22.990011   15.139488   22.255767 C.3        1 MOL1         0.1053
     114    H54     22.202751   15.803179   22.639153 H          1 MOL1         0.0783
     115    O28     24.038051   15.011105   23.224675 O.3        1 MOL1        -0.5519
     116    H55     24.430455   15.911215   23.342709 H          1 MOL1         0.3769
     117    C34     23.582227   15.779055   20.973619 C.3        1 MOL1         0.1018
     118    H56     24.531950   15.278787   20.742994 H          1 MOL1         0.0783
     119    C35     22.641089   15.673761   19.743171 C.3        1 MOL1         0.1043
     120    H57     21.808855   16.376718   19.879913 H          1 MOL1         0.0783
     121    O29     22.131633   14.320916   19.625527 O.3        1 MOL1        -0.3740
     122    C36     23.341882   16.027055   18.412627 C.3        1 MOL1         0.0138
     123    H58     23.696410   17.065000   18.457216 H          1 MOL1         0.0794
     124    H59     22.605517   15.967158   17.600189 H          1 MOL1         0.0794
     125    O30     24.436261   15.141570   18.156131 O.3        1 MOL1        -0.5486
     126    H60     24.064353   14.232092   18.190450 H          1 MOL1         0.3769
     127    C1      19.617099   18.991671   24.015314 C.2        1 MOL1         0.6021
     128    O1      20.100414   19.956915   24.577793 O.co2      1 MOL1        -0.6904
     129    O2      19.407289   17.921174   24.555797 O.co2      1 MOL1        -0.6904
     130    C2      19.263152   19.127207   22.535967 C.3        1 MOL1        -0.2102
     131    H1      18.943183   20.157709   22.348120 H          1 MOL1         0.0687
     132    H2      18.393485   18.496002   22.332907 H          1 MOL1         0.0687
     133    C3      20.432818   18.744365   21.594714 C.3        1 MOL1        -0.1974
     134    H3      21.292006   19.394514   21.798092 H          1 MOL1         0.0689
     135    H4      20.763572   17.719905   21.810361 H          1 MOL1         0.0689
     136    C4      20.032933   18.857812   20.110340 C.3        1 MOL1        -0.2987
     137    H5      19.719354   19.881008   19.868514 H          1 MOL1         0.0700
     138    H6      20.877684   18.599512   19.460163 H          1 MOL1         0.0700
     139    H7      19.205143   18.175861   19.877766 H          1 MOL1         0.0700
@<TRIPOS>BOND
    1     1     2    1
    2     1     3    1
    3     1     4    1
    4     4     5    1
    5     4     6    1
    6     6     7    1
    7     4     8    1
    8     8     9    1
    9     8    10    1
   10    10    11    1
   11     8    12    1
   12    12    13    1
   13    12    14    1
   14    14    15    1
   15     1    16    1
   16    14    16    1
   17    14    17    1
   18    17    18    1
   19    17    19    1
   20    17    20    1
   21    20    21    1
   22    22    23    1
   23    22    24    1
   24    22    25    1
   25    25    26    1
   26    25    27    1
   27    27    28    1
   28    25    29    1
   29    29    30    1
   30    29    31    1
   31    31    32    1
   32     3    33    1
   33    29    33    1
   34    33    34    1
   35    33    35    1
   36    35    36    1
   37    22    37    1
   38    35    37    1
   39    35    38    1
   40    38    39    1
   41    38    40    1
   42    38    41    1
   43    41    42    1
   44    43    44    1
   45    43    45    1
   46    43    46    1
   47    46    47    1
   48    46    48    1
   49    48    49    1
   50    46    50    1
   51    50    51    1
   52    50    52    1
   53    52    53    1
   54    24    54    1
   55    50    54    1
   56    54    55    1
   57    54    56    1
   58    56    57    1
   59    43    58    1
   60    56    58    1
   61    56    59    1
   62    59    60    1
   63    59    61    1
   64    59    62    1
   65    62    63    1
   66    64    65    1
   67    64    66    1
   68    64    67    1
   69    67    68    1
   70    67    69    1
   71    69    70    1
   72    67    71    1
   73    71    72    1
   74    71    73    1
   75    73    74    1
   76    45    75    1
   77    71    75    1
   78    75    76    1
   79    75    77    1
   80    77    78    1
   81    64    79    1
   82    77    79    1
   83    77    80    1
   84    80    81    1
   85    80    82    1
   86    80    83    1
   87    83    84    1
   88    85    86    1
   89    85    87    1
   90    85    88    1
   91    88    89    1
   92    88    90    1
   93    90    91    1
   94    88    92    1
   95    92    93    1
   96    92    94    1
   97    94    95    1
   98    66    96    1
   99    92    96    1
  100    96    97    1
  101    96    98    1
  102    98    99    1
  103    85   100    1
  104    98   100    1
  105    98   101    1
  106   101   102    1
  107   101   103    1
  108   101   104    1
  109   104   105    1
  110   106   107    1
  111    12   108    1
  112   106   108    1
  113   106   109    1
  114   109   110    1
  115   109   111    1
  116   111   112    1
  117   109   113    1
  118   113   114    1
  119   113   115    1
  120   115   116    1
  121    87   117    1
  122   113   117    1
  123   117   118    1
  124   117   119    1
  125   119   120    1
  126   106   121    1
  127   119   121    1
  128   119   122    1
  129   122   123    1
  130   122   124    1
  131   122   125    1
  132   125   126    1
  133   127   128    1
  134   127   129    2
  135   127   130    1
  136   130   131    1
  137   130   132    1
  138   130   133    1
  139   133   134    1
  140   133   135    1
  141   133   136    1
  142   136   137    1
  143   136   138    1
  144   136   139    1
@<TRIPOS>SUBSTRUCTURE
       1 MOL1            1 RESIDUE      1      MOL     
       2 MOL1          139 RESIDUE      1      MOL     
@<SCITEGIC>MOL_PROPERTY
VM2 Rank
SciTegic.value.IntegerValue
1

@<SCITEGIC>MOL_PROPERTY
Conf_Id
SciTegic.value.IntegerValue
14863

@<SCITEGIC>MOL_PROPERTY
Probability
SciTegic.value.DoubleValue
2.60

@<SCITEGIC>MOL_PROPERTY
Sum Probability
SciTegic.value.DoubleValue
2.60

@<SCITEGIC>MOL_PROPERTY
Delta G
SciTegic.value.DoubleValue
0.000

@<SCITEGIC>MOL_PROPERTY
G
SciTegic.value.DoubleValue
473.018

@<SCITEGIC>MOL_PROPERTY
E
SciTegic.value.DoubleValue
293.403

@<SCITEGIC>MOL_PROPERTY
-TS
SciTegic.value.DoubleValue
179.615

@<SCITEGIC>MOL_PROPERTY
U+W
SciTegic.value.DoubleValue
170.892

@<SCITEGIC>MOL_PROPERTY
U
SciTegic.value.DoubleValue
236.051

@<SCITEGIC>MOL_PROPERTY
W
SciTegic.value.DoubleValue
-65.158

@<SCITEGIC>MOL_PROPERTY
W(PB)
SciTegic.value.DoubleValue
-71.229

@<SCITEGIC>MOL_PROPERTY
W(SA)
SciTegic.value.DoubleValue
6.071

@<SCITEGIC>MOL_PROPERTY
Valence
SciTegic.value.DoubleValue
149.615

@<SCITEGIC>MOL_PROPERTY
Coulomb
SciTegic.value.DoubleValue
103.869

@<SCITEGIC>MOL_PROPERTY
VdW
SciTegic.value.DoubleValue
-17.433

@<SCITEGIC>MOL_PROPERTY
VdW6
SciTegic.value.DoubleValue
-175.142

@<SCITEGIC>MOL_PROPERTY
VdW12
SciTegic.value.DoubleValue
157.709

@<SCITEGIC>MOL_PROPERTY
Bond
SciTegic.value.DoubleValue
5.112

@<SCITEGIC>MOL_PROPERTY
Angle
SciTegic.value.DoubleValue
12.123

@<SCITEGIC>MOL_PROPERTY
Pdih
SciTegic.value.DoubleValue
132.379

@<SCITEGIC>MOL_PROPERTY
Idih
SciTegic.value.DoubleValue
0.000

@<SCITEGIC>MOL_PROPERTY
Tether
SciTegic.value.DoubleValue
0.000

