@<TRIPOS>MOLECULE
CD_guest-3_vm2_single.mol2 : vm2 host+ligand conformer 1
         155         160           2
SMALL
USER_CHARGES
 
@<TRIPOS>ATOM
       1    C1      16.353312   15.183462   21.741343 C.3        1 MOL1         0.2972
       2    H1      15.278018   15.076410   21.933885 H          1 MOL1         0.0751
       3    O1      16.685903   16.515601   21.299779 O.3        1 MOL1        -0.3740
       4    C2      17.163883   14.859625   23.021616 C.3        1 MOL1         0.1003
       5    H2      16.955543   13.813134   23.279782 H          1 MOL1         0.0783
       6    O2      16.774933   15.698531   24.120333 O.3        1 MOL1        -0.5519
       7    H3      15.971480   16.198280   23.835383 H          1 MOL1         0.3769
       8    C3      18.681354   14.995680   22.757961 C.3        1 MOL1         0.1053
       9    H4      18.901543   16.054104   22.580374 H          1 MOL1         0.0783
      10    O3      19.396316   14.550763   23.913553 O.3        1 MOL1        -0.5519
      11    H5      18.928099   14.972535   24.669191 H          1 MOL1         0.3769
      12    C4      19.123095   14.194960   21.506020 C.3        1 MOL1         0.1018
      13    H6      19.194497   13.132682   21.775411 H          1 MOL1         0.0783
      14    C5      18.159604   14.377605   20.298056 C.3        1 MOL1         0.1043
      15    H7      18.326486   15.378544   19.878890 H          1 MOL1         0.0783
      16    O4      16.778036   14.255098   20.721429 O.3        1 MOL1        -0.3740
      17    C6      18.399725   13.355313   19.165039 C.3        1 MOL1         0.0138
      18    H8      19.404464   13.510461   18.749931 H          1 MOL1         0.0794
      19    H9      17.680070   13.546710   18.357822 H          1 MOL1         0.0794
      20    O5      18.265427   12.013573   19.642536 O.3        1 MOL1        -0.5486
      21    H10     17.360975   11.945229   20.021880 H          1 MOL1         0.3769
      22    C7      14.867946   20.236623   20.825657 C.3        1 MOL1         0.2972
      23    H11     14.191377   21.057802   20.555339 H          1 MOL1         0.0751
      24    O6      16.134389   20.723396   21.308271 O.3        1 MOL1        -0.3740
      25    C8      14.246561   19.350173   21.934737 C.3        1 MOL1         0.1003
      26    H12     13.299354   18.955747   21.544457 H          1 MOL1         0.0783
      27    O7      13.983253   20.115244   23.122075 O.3        1 MOL1        -0.5519
      28    H13     14.795774   20.646265   23.321328 H          1 MOL1         0.3769
      29    C9      15.164793   18.146117   22.263472 C.3        1 MOL1         0.1053
      30    H14     16.076604   18.533673   22.738509 H          1 MOL1         0.0783
      31    O8      14.478629   17.275970   23.169446 O.3        1 MOL1        -0.5519
      32    H15     14.037229   17.877462   23.811618 H          1 MOL1         0.3769
      33    C10     15.580369   17.381112   20.976435 C.3        1 MOL1         0.1018
      34    H16     14.725747   16.812405   20.586109 H          1 MOL1         0.0783
      35    C11     16.084918   18.342478   19.869410 C.3        1 MOL1         0.1043
      36    H17     17.049855   18.761775   20.176741 H          1 MOL1         0.0783
      37    O9      15.115516   19.399759   19.676612 O.3        1 MOL1        -0.3740
      38    C12     16.277144   17.630187   18.514590 C.3        1 MOL1         0.0138
      39    H18     16.900668   16.738555   18.657644 H          1 MOL1         0.0794
      40    H19     15.301274   17.297497   18.136442 H          1 MOL1         0.0794
      41    O10     16.904324   18.514463   17.583717 O.3        1 MOL1        -0.5486
      42    H20     16.339465   19.316239   17.545486 H          1 MOL1         0.3769
      43    C13     18.360156   24.162685   21.753638 C.3        1 MOL1         0.2972
      44    H21     18.751466   25.181872   21.866105 H          1 MOL1         0.0751
      45    O11     19.415622   23.196852   21.572672 O.3        1 MOL1        -0.3740
      46    C14     17.545391   23.764567   23.008788 C.3        1 MOL1         0.1003
      47    H22     16.692236   24.451474   23.082401 H          1 MOL1         0.0783
      48    O12     18.343771   23.873433   24.197878 O.3        1 MOL1        -0.5519
      49    H23     19.292488   23.839178   23.918367 H          1 MOL1         0.3769
      50    C15     16.993076   22.329156   22.859728 C.3        1 MOL1         0.1053
      51    H24     17.849277   21.645480   22.874447 H          1 MOL1         0.0783
      52    O13     16.122792   22.032636   23.956230 O.3        1 MOL1        -0.5519
      53    H25     16.599075   22.361616   24.751087 H          1 MOL1         0.3769
      54    C16     16.234103   22.143727   21.521434 C.3        1 MOL1         0.1018
      55    H26     15.246428   22.613673   21.619692 H          1 MOL1         0.0783
      56    C17     16.991800   22.744735   20.302057 C.3        1 MOL1         0.1043
      57    H27     17.841117   22.088853   20.068713 H          1 MOL1         0.0783
      58    O14     17.476578   24.075259   20.616534 O.3        1 MOL1        -0.3740
      59    C18     16.125021   22.852682   19.027799 C.3        1 MOL1         0.0138
      60    H28     15.844974   21.844436   18.696467 H          1 MOL1         0.0794
      61    H29     16.728278   23.301739   18.227387 H          1 MOL1         0.0794
      62    O15     14.952779   23.637170   19.265727 O.3        1 MOL1        -0.5486
      63    H30     15.267064   24.514331   19.579087 H          1 MOL1         0.3769
      64    C19     23.484760   22.762679   20.951097 C.3        1 MOL1         0.2972
      65    H31     24.545063   22.886458   20.695448 H          1 MOL1         0.0751
      66    O16     23.161297   21.378051   21.197694 O.3        1 MOL1        -0.3740
      67    C20     23.102005   23.623865   22.185853 C.3        1 MOL1         0.1003
      68    H32     23.269087   24.673104   21.909602 H          1 MOL1         0.0783
      69    O17     23.907909   23.316914   23.332922 O.3        1 MOL1        -0.5519
      70    H33     23.717794   22.375794   23.576136 H          1 MOL1         0.3769
      71    C21     21.600172   23.453845   22.516031 C.3        1 MOL1         0.1053
      72    H34     21.435599   22.414947   22.834818 H          1 MOL1         0.0783
      73    O18     21.235559   24.347725   23.572055 O.3        1 MOL1        -0.5519
      74    H35     21.968794   24.287203   24.224816 H          1 MOL1         0.3769
      75    C22     20.719807   23.724243   21.270042 C.3        1 MOL1         0.1018
      76    H36     20.694223   24.803589   21.069011 H          1 MOL1         0.0783
      77    C23     21.233265   22.990808   20.002684 C.3        1 MOL1         0.1043
      78    H37     21.019847   21.921510   20.105792 H          1 MOL1         0.0783
      79    O19     22.659259   23.212216   19.855049 O.3        1 MOL1        -0.3740
      80    C24     20.547610   23.496271   18.716365 C.3        1 MOL1         0.0138
      81    H38     20.804712   24.552182   18.558622 H          1 MOL1         0.0794
      82    H39     19.458711   23.432512   18.834982 H          1 MOL1         0.0794
      83    O20     20.960509   22.706901   17.599357 O.3        1 MOL1        -0.5486
      84    H40     21.942232   22.725883   17.602185 H          1 MOL1         0.3769
      85    C25     24.824992   17.684872   22.072904 C.3        1 MOL1         0.2972
      86    H41     25.472541   16.848237   22.365325 H          1 MOL1         0.0751
      87    O21     23.620233   17.224335   21.428230 O.3        1 MOL1        -0.3740
      88    C26     24.446594   18.532033   23.316062 C.3        1 MOL1         0.1003
      89    H42     25.382565   18.911746   23.746144 H          1 MOL1         0.0783
      90    O22     23.756004   17.750290   24.304254 O.3        1 MOL1        -0.5519
      91    H43     23.884755   16.799597   24.068503 H          1 MOL1         0.3769
      92    C27     23.575064   19.741623   22.912366 C.3        1 MOL1         0.1053
      93    H44     22.611800   19.347859   22.573536 H          1 MOL1         0.0783
      94    O23     23.374633   20.574493   24.057640 O.3        1 MOL1        -0.5519
      95    H45     23.156115   19.945932   24.782394 H          1 MOL1         0.3769
      96    C28     24.206599   20.552752   21.751424 C.3        1 MOL1         0.1018
      97    H46     25.034892   21.152447   22.151507 H          1 MOL1         0.0783
      98    C29     24.723335   19.640501   20.603147 C.3        1 MOL1         0.1043
      99    H47     23.854411   19.233853   20.069112 H          1 MOL1         0.0783
     100    O24     25.513305   18.553007   21.147248 O.3        1 MOL1        -0.3740
     101    C30     25.594707   20.387011   19.568759 C.3        1 MOL1         0.0138
     102    H48     24.977972   21.137364   19.056510 H          1 MOL1         0.0794
     103    H49     25.933624   19.670046   18.808988 H          1 MOL1         0.0794
     104    O25     26.717049   21.015550   20.194280 O.3        1 MOL1        -0.5486
     105    H50     27.214345   20.301216   20.651300 H          1 MOL1         0.3769
     106    C31     21.440410   13.788941   20.801510 C.3        1 MOL1         0.2972
     107    H51     21.035199   12.804082   20.535099 H          1 MOL1         0.0751
     108    O26     20.393807   14.736259   21.098176 O.3        1 MOL1        -0.3740
     109    C32     22.398948   13.695487   22.015470 C.3        1 MOL1         0.1003
     110    H52     23.249404   13.073150   21.707728 H          1 MOL1         0.0783
     111    O27     21.768330   13.085691   23.151289 O.3        1 MOL1        -0.5519
     112    H53     20.977139   13.636568   23.379828 H          1 MOL1         0.3769
     113    C33     22.943603   15.098118   22.379530 C.3        1 MOL1         0.1053
     114    H54     22.104364   15.704123   22.749420 H          1 MOL1         0.0783
     115    O28     23.930724   14.958953   23.407227 O.3        1 MOL1        -0.5519
     116    H55     23.567232   14.277169   24.017300 H          1 MOL1         0.3769
     117    C34     23.548582   15.814303   21.138758 C.3        1 MOL1         0.1018
     118    H56     24.541789   15.398259   20.922635 H          1 MOL1         0.0783
     119    C35     22.671863   15.682559   19.862769 C.3        1 MOL1         0.1043
     120    H57     21.810661   16.356820   19.951742 H          1 MOL1         0.0783
     121    O29     22.217782   14.315580   19.706917 O.3        1 MOL1        -0.3740
     122    C36     23.459071   16.060920   18.589955 C.3        1 MOL1         0.0138
     123    H58     24.267491   15.334060   18.434428 H          1 MOL1         0.0794
     124    H59     23.920922   17.047388   18.729737 H          1 MOL1         0.0794
     125    O30     22.585694   16.088566   17.459365 O.3        1 MOL1        -0.5486
     126    H60     22.124071   15.221611   17.449401 H          1 MOL1         0.3769
     127    C1      18.613899   18.967126   24.530809 C.3        1 MOL1        -0.2427
     128    H1      18.073390   18.018891   24.424646 H          1 MOL1         0.0958
     129    H2      19.005742   19.017482   25.554608 H          1 MOL1         0.0958
     130    H3      17.893893   19.784980   24.404209 H          1 MOL1         0.0958
     131    C2      19.760660   19.065896   23.504219 C.3        1 MOL1        -0.1412
     132    H4      20.470312   18.242763   23.671161 H          1 MOL1         0.0947
     133    H5      20.315118   20.001378   23.664659 H          1 MOL1         0.0947
     134    C3      19.233228   19.015539   22.054662 C.3        1 MOL1        -0.1437
     135    H6      18.651907   18.100757   21.902083 H          1 MOL1         0.0947
     136    H7      18.549603   19.852648   21.880975 H          1 MOL1         0.0947
     137    C4      20.377454   19.075664   21.027064 C.3        1 MOL1        -0.1437
     138    H8      21.053826   18.224730   21.181312 H          1 MOL1         0.0947
     139    H9      20.959776   19.987035   21.199820 H          1 MOL1         0.0947
     140    C5      19.859339   19.070867   19.575108 C.3        1 MOL1        -0.1437
     141    H10     19.305164   18.141237   19.384952 H          1 MOL1         0.0947
     142    H11     19.154318   19.900844   19.428486 H          1 MOL1         0.0947
     143    C6      21.017437   19.197550   18.564115 C.3        1 MOL1        -0.1437
     144    H12     21.723555   18.372172   18.711032 H          1 MOL1         0.0947
     145    H13     21.575254   20.125303   18.748237 H          1 MOL1         0.0947
     146    C7      20.507457   19.184210   17.109305 C.3        1 MOL1        -0.1477
     147    H14     19.927815   18.268860   16.928181 H          1 MOL1         0.0947
     148    H15     19.829700   20.033696   16.948865 H          1 MOL1         0.0947
     149    C8      21.675922   19.258313   16.113223 C.3        1 MOL1         0.0145
     150    H16     22.333195   18.395250   16.255203 H          1 MOL1         0.0921
     151    H17     22.253787   20.168868   16.292881 H          1 MOL1         0.0921
     152    N1      21.220373   19.270355   14.669240 N.4        1 MOL1        -0.5969
     153    H18     20.688324   18.426128   14.434618 H          1 MOL1         0.3603
     154    H19     22.013041   19.318051   14.020403 H          1 MOL1         0.3603
     155    H20     20.617555   20.075529   14.470744 H          1 MOL1         0.3603
@<TRIPOS>BOND
    1     1     2    1
    2     1     3    1
    3     1     4    1
    4     4     5    1
    5     4     6    1
    6     6     7    1
    7     4     8    1
    8     8     9    1
    9     8    10    1
   10    10    11    1
   11     8    12    1
   12    12    13    1
   13    12    14    1
   14    14    15    1
   15     1    16    1
   16    14    16    1
   17    14    17    1
   18    17    18    1
   19    17    19    1
   20    17    20    1
   21    20    21    1
   22    22    23    1
   23    22    24    1
   24    22    25    1
   25    25    26    1
   26    25    27    1
   27    27    28    1
   28    25    29    1
   29    29    30    1
   30    29    31    1
   31    31    32    1
   32     3    33    1
   33    29    33    1
   34    33    34    1
   35    33    35    1
   36    35    36    1
   37    22    37    1
   38    35    37    1
   39    35    38    1
   40    38    39    1
   41    38    40    1
   42    38    41    1
   43    41    42    1
   44    43    44    1
   45    43    45    1
   46    43    46    1
   47    46    47    1
   48    46    48    1
   49    48    49    1
   50    46    50    1
   51    50    51    1
   52    50    52    1
   53    52    53    1
   54    24    54    1
   55    50    54    1
   56    54    55    1
   57    54    56    1
   58    56    57    1
   59    43    58    1
   60    56    58    1
   61    56    59    1
   62    59    60    1
   63    59    61    1
   64    59    62    1
   65    62    63    1
   66    64    65    1
   67    64    66    1
   68    64    67    1
   69    67    68    1
   70    67    69    1
   71    69    70    1
   72    67    71    1
   73    71    72    1
   74    71    73    1
   75    73    74    1
   76    45    75    1
   77    71    75    1
   78    75    76    1
   79    75    77    1
   80    77    78    1
   81    64    79    1
   82    77    79    1
   83    77    80    1
   84    80    81    1
   85    80    82    1
   86    80    83    1
   87    83    84    1
   88    85    86    1
   89    85    87    1
   90    85    88    1
   91    88    89    1
   92    88    90    1
   93    90    91    1
   94    88    92    1
   95    92    93    1
   96    92    94    1
   97    94    95    1
   98    66    96    1
   99    92    96    1
  100    96    97    1
  101    96    98    1
  102    98    99    1
  103    85   100    1
  104    98   100    1
  105    98   101    1
  106   101   102    1
  107   101   103    1
  108   101   104    1
  109   104   105    1
  110   106   107    1
  111    12   108    1
  112   106   108    1
  113   106   109    1
  114   109   110    1
  115   109   111    1
  116   111   112    1
  117   109   113    1
  118   113   114    1
  119   113   115    1
  120   115   116    1
  121    87   117    1
  122   113   117    1
  123   117   118    1
  124   117   119    1
  125   119   120    1
  126   106   121    1
  127   119   121    1
  128   119   122    1
  129   122   123    1
  130   122   124    1
  131   122   125    1
  132   125   126    1
  133   127   128    1
  134   127   129    1
  135   127   130    1
  136   127   131    1
  137   131   132    1
  138   131   133    1
  139   131   134    1
  140   134   135    1
  141   134   136    1
  142   134   137    1
  143   137   138    1
  144   137   139    1
  145   137   140    1
  146   140   141    1
  147   140   142    1
  148   140   143    1
  149   143   144    1
  150   143   145    1
  151   143   146    1
  152   146   147    1
  153   146   148    1
  154   146   149    1
  155   149   150    1
  156   149   151    1
  157   149   152    1
  158   152   153    1
  159   152   154    1
  160   152   155    1
@<TRIPOS>SUBSTRUCTURE
       1 MOL1            1 RESIDUE      1      MOL     
       2 MOL1          155 RESIDUE      1      MOL     
@<SCITEGIC>MOL_PROPERTY
VM2 Rank
SciTegic.value.IntegerValue
1

@<SCITEGIC>MOL_PROPERTY
Conf_Id
SciTegic.value.IntegerValue
16673

@<SCITEGIC>MOL_PROPERTY
Probability
SciTegic.value.DoubleValue
6.09

@<SCITEGIC>MOL_PROPERTY
Sum Probability
SciTegic.value.DoubleValue
6.09

@<SCITEGIC>MOL_PROPERTY
Delta G
SciTegic.value.DoubleValue
0.000

@<SCITEGIC>MOL_PROPERTY
G
SciTegic.value.DoubleValue
574.077

@<SCITEGIC>MOL_PROPERTY
E
SciTegic.value.DoubleValue
367.048

@<SCITEGIC>MOL_PROPERTY
-TS
SciTegic.value.DoubleValue
207.029

@<SCITEGIC>MOL_PROPERTY
U+W
SciTegic.value.DoubleValue
230.229

@<SCITEGIC>MOL_PROPERTY
U
SciTegic.value.DoubleValue
301.702

@<SCITEGIC>MOL_PROPERTY
W
SciTegic.value.DoubleValue
-71.461

@<SCITEGIC>MOL_PROPERTY
W(PB)
SciTegic.value.DoubleValue
-77.627

@<SCITEGIC>MOL_PROPERTY
W(SA)
SciTegic.value.DoubleValue
6.165

@<SCITEGIC>MOL_PROPERTY
Valence
SciTegic.value.DoubleValue
147.105

@<SCITEGIC>MOL_PROPERTY
Coulomb
SciTegic.value.DoubleValue
183.404

@<SCITEGIC>MOL_PROPERTY
VdW
SciTegic.value.DoubleValue
-28.808

@<SCITEGIC>MOL_PROPERTY
VdW6
SciTegic.value.DoubleValue
-180.785

@<SCITEGIC>MOL_PROPERTY
VdW12
SciTegic.value.DoubleValue
151.978

@<SCITEGIC>MOL_PROPERTY
Bond
SciTegic.value.DoubleValue
4.288

@<SCITEGIC>MOL_PROPERTY
Angle
SciTegic.value.DoubleValue
9.230

@<SCITEGIC>MOL_PROPERTY
Pdih
SciTegic.value.DoubleValue
133.587

@<SCITEGIC>MOL_PROPERTY
Idih
SciTegic.value.DoubleValue
0.000

@<SCITEGIC>MOL_PROPERTY
Tether
SciTegic.value.DoubleValue
0.000

@<TRIPOS>MOLECULE
CD_guest-3_vm2_single.mol2 : vm2 host+ligand conformer 2
         155         160           2
SMALL
USER_CHARGES
 
@<TRIPOS>ATOM
       1    C1      16.330229   15.172870   21.723109 C.3        1 MOL1         0.2972
       2    H1      15.251475   15.064599   21.894580 H          1 MOL1         0.0751
       3    O1      16.673208   16.513100   21.315207 O.3        1 MOL1        -0.3740
       4    C2      17.116057   14.821812   23.011372 C.3        1 MOL1         0.1003
       5    H2      16.903858   13.769894   23.243166 H          1 MOL1         0.0783
       6    O2      16.704773   15.637974   24.119398 O.3        1 MOL1        -0.5519
       7    H3      15.936379   16.179275   23.813681 H          1 MOL1         0.3769
       8    C3      18.637928   14.963726   22.779109 C.3        1 MOL1         0.1053
       9    H4      18.860356   16.025276   22.625693 H          1 MOL1         0.0783
      10    O3      19.333473   14.497612   23.938498 O.3        1 MOL1        -0.5519
      11    H5      18.849868   14.901352   24.694207 H          1 MOL1         0.3769
      12    C4      19.102414   14.186110   21.521366 C.3        1 MOL1         0.1018
      13    H6      19.167925   13.119857   21.775934 H          1 MOL1         0.0783
      14    C5      18.162054   14.388150   20.298346 C.3        1 MOL1         0.1043
      15    H7      18.335349   15.398634   19.906018 H          1 MOL1         0.0783
      16    O4      16.771298   14.266125   20.691684 O.3        1 MOL1        -0.3740
      17    C6      18.434567   13.398944   19.139942 C.3        1 MOL1         0.0138
      18    H8      19.391902   13.666192   18.672283 H          1 MOL1         0.0794
      19    H9      17.653149   13.527055   18.378946 H          1 MOL1         0.0794
      20    O5      18.476173   12.038285   19.588261 O.3        1 MOL1        -0.5486
      21    H10     18.573553   11.466225   18.795857 H          1 MOL1         0.3769
      22    C7      14.883429   20.238894   20.798069 C.3        1 MOL1         0.2972
      23    H11     14.215416   21.063741   20.517745 H          1 MOL1         0.0751
      24    O6      16.151861   20.719250   21.281883 O.3        1 MOL1        -0.3740
      25    C8      14.248179   19.363799   21.908810 C.3        1 MOL1         0.1003
      26    H12     13.301719   18.972291   21.513823 H          1 MOL1         0.0783
      27    O7      13.979910   20.137139   23.089534 O.3        1 MOL1        -0.5519
      28    H13     14.801703   20.646893   23.305766 H          1 MOL1         0.3769
      29    C9      15.157163   18.156838   22.251482 C.3        1 MOL1         0.1053
      30    H14     16.068546   18.542562   22.728767 H          1 MOL1         0.0783
      31    O8      14.462788   17.294889   23.158870 O.3        1 MOL1        -0.5519
      32    H15     14.022872   17.901310   23.797285 H          1 MOL1         0.3769
      33    C10     15.575402   17.380445   20.972956 C.3        1 MOL1         0.1018
      34    H16     14.719940   16.813157   20.582345 H          1 MOL1         0.0783
      35    C11     16.091860   18.329210   19.860598 C.3        1 MOL1         0.1043
      36    H17     17.059162   18.742989   20.167946 H          1 MOL1         0.0783
      37    O9      15.131285   19.392646   19.655865 O.3        1 MOL1        -0.3740
      38    C12     16.283057   17.604691   18.512162 C.3        1 MOL1         0.0138
      39    H18     16.894687   16.706543   18.665109 H          1 MOL1         0.0794
      40    H19     15.305320   17.281125   18.130921 H          1 MOL1         0.0794
      41    O10     16.926127   18.474467   17.578482 O.3        1 MOL1        -0.5486
      42    H20     16.373523   19.284517   17.534128 H          1 MOL1         0.3769
      43    C13     18.371638   24.153175   21.785930 C.3        1 MOL1         0.2972
      44    H21     18.762978   25.169984   21.918363 H          1 MOL1         0.0751
      45    O11     19.426070   23.194130   21.567717 O.3        1 MOL1        -0.3740
      46    C14     17.572773   23.722783   23.040655 C.3        1 MOL1         0.1003
      47    H22     16.719045   24.405639   23.140629 H          1 MOL1         0.0783
      48    O12     18.384391   23.804895   24.222939 O.3        1 MOL1        -0.5519
      49    H23     19.329661   23.803481   23.930338 H          1 MOL1         0.3769
      50    C15     17.021854   22.289965   22.863768 C.3        1 MOL1         0.1053
      51    H24     17.879625   21.607957   22.852819 H          1 MOL1         0.0783
      52    O13     16.164865   21.966601   23.963108 O.3        1 MOL1        -0.5519
      53    H25     16.650593   22.277384   24.759605 H          1 MOL1         0.3769
      54    C16     16.247849   22.134155   21.530116 C.3        1 MOL1         0.1018
      55    H26     15.259150   22.596682   21.651004 H          1 MOL1         0.0783
      56    C17     16.988884   22.767789   20.316917 C.3        1 MOL1         0.1043
      57    H27     17.837029   22.120255   20.057337 H          1 MOL1         0.0783
      58    O14     17.474183   24.091618   20.657962 O.3        1 MOL1        -0.3740
      59    C18     16.106706   22.903540   19.055931 C.3        1 MOL1         0.0138
      60    H28     15.827541   21.902388   18.702716 H          1 MOL1         0.0794
      61    H29     16.698469   23.375449   18.260101 H          1 MOL1         0.0794
      62    O15     14.933662   23.675979   19.326982 O.3        1 MOL1        -0.5486
      63    H30     15.247386   24.547020   19.657534 H          1 MOL1         0.3769
      64    C19     23.489736   22.771793   20.930482 C.3        1 MOL1         0.2972
      65    H31     24.549370   22.893197   20.670941 H          1 MOL1         0.0751
      66    O16     23.164056   21.387763   21.178824 O.3        1 MOL1        -0.3740
      67    C20     23.112706   23.635239   22.165348 C.3        1 MOL1         0.1003
      68    H32     23.277216   24.684050   21.885932 H          1 MOL1         0.0783
      69    O17     23.924838   23.331852   23.308903 O.3        1 MOL1        -0.5519
      70    H33     23.734176   22.392208   23.557247 H          1 MOL1         0.3769
      71    C21     21.612730   23.464151   22.503172 C.3        1 MOL1         0.1053
      72    H34     21.451202   22.425569   22.824579 H          1 MOL1         0.0783
      73    O18     21.252255   24.359061   23.559718 O.3        1 MOL1        -0.5519
      74    H35     21.989946   24.302124   24.207821 H          1 MOL1         0.3769
      75    C22     20.725331   23.730970   21.261193 C.3        1 MOL1         0.1018
      76    H36     20.691162   24.810304   21.061269 H          1 MOL1         0.0783
      77    C23     21.235632   23.002475   19.989666 C.3        1 MOL1         0.1043
      78    H37     21.022112   21.932979   20.089413 H          1 MOL1         0.0783
      79    O19     22.661229   23.223172   19.837555 O.3        1 MOL1        -0.3740
      80    C24     20.545081   23.512878   18.707948 C.3        1 MOL1         0.0138
      81    H38     20.803775   24.568656   18.551892 H          1 MOL1         0.0794
      82    H39     19.456551   23.451308   18.831831 H          1 MOL1         0.0794
      83    O20     20.950960   22.725703   17.586824 O.3        1 MOL1        -0.5486
      84    H40     21.932709   22.743102   17.584519 H          1 MOL1         0.3769
      85    C25     24.818885   17.692689   22.067541 C.3        1 MOL1         0.2972
      86    H41     25.465891   16.856552   22.362530 H          1 MOL1         0.0751
      87    O21     23.612181   17.230440   21.427667 O.3        1 MOL1        -0.3740
      88    C26     24.444721   18.546708   23.307455 C.3        1 MOL1         0.1003
      89    H42     25.382627   18.925264   23.734333 H          1 MOL1         0.0783
      90    O22     23.753270   17.771782   24.300371 O.3        1 MOL1        -0.5519
      91    H43     23.888944   16.819444   24.075592 H          1 MOL1         0.3769
      92    C27     23.576327   19.757525   22.900443 C.3        1 MOL1         0.1053
      93    H44     22.610674   19.366076   22.565897 H          1 MOL1         0.0783
      94    O23     23.381808   20.595700   24.042810 O.3        1 MOL1        -0.5519
      95    H45     23.161833   19.970886   24.770381 H          1 MOL1         0.3769
      96    C28     24.207636   20.561353   21.734288 C.3        1 MOL1         0.1018
      97    H46     25.039147   21.159935   22.129323 H          1 MOL1         0.0783
      98    C29     24.718137   19.641902   20.589085 C.3        1 MOL1         0.1043
      99    H47     23.846465   19.234906   20.059943 H          1 MOL1         0.0783
     100    O24     25.506801   18.555003   21.136125 O.3        1 MOL1        -0.3740
     101    C30     25.588142   20.381041   19.548284 C.3        1 MOL1         0.0138
     102    H48     24.971922   21.131099   19.034966 H          1 MOL1         0.0794
     103    H49     25.922109   19.659655   18.790512 H          1 MOL1         0.0794
     104    O25     26.714649   21.008820   20.167042 O.3        1 MOL1        -0.5486
     105    H50     27.211096   20.295019   20.625817 H          1 MOL1         0.3769
     106    C31     21.425805   13.789186   20.842781 C.3        1 MOL1         0.2972
     107    H51     21.020886   12.801715   20.586042 H          1 MOL1         0.0751
     108    O26     20.380702   14.734727   21.147664 O.3        1 MOL1        -0.3740
     109    C32     22.392515   13.705408   22.050514 C.3        1 MOL1         0.1003
     110    H52     23.240413   13.079409   21.743188 H          1 MOL1         0.0783
     111    O27     21.767011   13.107218   23.195559 O.3        1 MOL1        -0.5519
     112    H53     20.961236   13.644079   23.406338 H          1 MOL1         0.3769
     113    C33     22.940447   15.110612   22.399726 C.3        1 MOL1         0.1053
     114    H54     22.104420   15.719479   22.772127 H          1 MOL1         0.0783
     115    O28     23.935376   14.977521   23.420708 O.3        1 MOL1        -0.5519
     116    H55     23.575580   14.300147   24.037917 H          1 MOL1         0.3769
     117    C34     23.535473   15.818236   21.149147 C.3        1 MOL1         0.1018
     118    H56     24.526155   15.399353   20.927047 H          1 MOL1         0.0783
     119    C35     22.647152   15.678949   19.881897 C.3        1 MOL1         0.1043
     120    H57     21.786511   16.353625   19.973807 H          1 MOL1         0.0783
     121    O29     22.192168   14.311156   19.738179 O.3        1 MOL1        -0.3740
     122    C36     23.423725   16.048704   18.599999 C.3        1 MOL1         0.0138
     123    H58     24.228927   15.319016   18.441051 H          1 MOL1         0.0794
     124    H59     23.889478   17.034606   18.730412 H          1 MOL1         0.0794
     125    O30     22.540410   16.072658   17.477053 O.3        1 MOL1        -0.5486
     126    H60     22.079261   15.205513   17.473661 H          1 MOL1         0.3769
     127    C1      18.605797   18.885777   24.500309 C.3        1 MOL1        -0.2427
     128    H1      18.089639   17.925764   24.379369 H          1 MOL1         0.0958
     129    H2      18.988438   18.934433   25.527667 H          1 MOL1         0.0958
     130    H3      17.866992   19.687290   24.376747 H          1 MOL1         0.0958
     131    C2      19.757348   19.024736   23.483831 C.3        1 MOL1        -0.1412
     132    H4      20.487002   18.218575   23.647387 H          1 MOL1         0.0947
     133    H5      20.286106   19.972588   23.658042 H          1 MOL1         0.0947
     134    C3      19.241247   18.975990   22.030239 C.3        1 MOL1        -0.1437
     135    H6      18.691959   18.044506   21.861497 H          1 MOL1         0.0947
     136    H7      18.531455   19.792143   21.862413 H          1 MOL1         0.0947
     137    C4      20.388762   19.084694   21.010941 C.3        1 MOL1        -0.1437
     138    H8      21.089410   18.253195   21.160707 H          1 MOL1         0.0947
     139    H9      20.942061   20.011600   21.197046 H          1 MOL1         0.0947
     140    C5      19.878839   19.077500   19.556115 C.3        1 MOL1        -0.1437
     141    H10     19.335072   18.142676   19.361111 H          1 MOL1         0.0947
     142    H11     19.166080   19.900477   19.407114 H          1 MOL1         0.0947
     143    C6      21.041716   19.215554   18.552226 C.3        1 MOL1        -0.1437
     144    H12     21.754195   18.396478   18.704071 H          1 MOL1         0.0947
     145    H13     21.589972   20.148296   18.739418 H          1 MOL1         0.0947
     146    C7      20.540926   19.196265   17.094321 C.3        1 MOL1        -0.1477
     147    H14     19.967206   18.277436   16.911814 H          1 MOL1         0.0947
     148    H15     19.859912   20.041915   16.927612 H          1 MOL1         0.0947
     149    C8      21.715318   19.273223   16.105493 C.3        1 MOL1         0.0145
     150    H16     22.374897   18.412910   16.253407 H          1 MOL1         0.0921
     151    H17     22.288481   20.186381   16.286940 H          1 MOL1         0.0921
     152    N1      21.268889   19.280452   14.658641 N.4        1 MOL1        -0.5969
     153    H18     20.742001   18.433427   14.422413 H          1 MOL1         0.3603
     154    H19     22.065397   19.330272   14.014679 H          1 MOL1         0.3603
     155    H20     20.663836   20.082576   14.454657 H          1 MOL1         0.3603
@<TRIPOS>BOND
    1     1     2    1
    2     1     3    1
    3     1     4    1
    4     4     5    1
    5     4     6    1
    6     6     7    1
    7     4     8    1
    8     8     9    1
    9     8    10    1
   10    10    11    1
   11     8    12    1
   12    12    13    1
   13    12    14    1
   14    14    15    1
   15     1    16    1
   16    14    16    1
   17    14    17    1
   18    17    18    1
   19    17    19    1
   20    17    20    1
   21    20    21    1
   22    22    23    1
   23    22    24    1
   24    22    25    1
   25    25    26    1
   26    25    27    1
   27    27    28    1
   28    25    29    1
   29    29    30    1
   30    29    31    1
   31    31    32    1
   32     3    33    1
   33    29    33    1
   34    33    34    1
   35    33    35    1
   36    35    36    1
   37    22    37    1
   38    35    37    1
   39    35    38    1
   40    38    39    1
   41    38    40    1
   42    38    41    1
   43    41    42    1
   44    43    44    1
   45    43    45    1
   46    43    46    1
   47    46    47    1
   48    46    48    1
   49    48    49    1
   50    46    50    1
   51    50    51    1
   52    50    52    1
   53    52    53    1
   54    24    54    1
   55    50    54    1
   56    54    55    1
   57    54    56    1
   58    56    57    1
   59    43    58    1
   60    56    58    1
   61    56    59    1
   62    59    60    1
   63    59    61    1
   64    59    62    1
   65    62    63    1
   66    64    65    1
   67    64    66    1
   68    64    67    1
   69    67    68    1
   70    67    69    1
   71    69    70    1
   72    67    71    1
   73    71    72    1
   74    71    73    1
   75    73    74    1
   76    45    75    1
   77    71    75    1
   78    75    76    1
   79    75    77    1
   80    77    78    1
   81    64    79    1
   82    77    79    1
   83    77    80    1
   84    80    81    1
   85    80    82    1
   86    80    83    1
   87    83    84    1
   88    85    86    1
   89    85    87    1
   90    85    88    1
   91    88    89    1
   92    88    90    1
   93    90    91    1
   94    88    92    1
   95    92    93    1
   96    92    94    1
   97    94    95    1
   98    66    96    1
   99    92    96    1
  100    96    97    1
  101    96    98    1
  102    98    99    1
  103    85   100    1
  104    98   100    1
  105    98   101    1
  106   101   102    1
  107   101   103    1
  108   101   104    1
  109   104   105    1
  110   106   107    1
  111    12   108    1
  112   106   108    1
  113   106   109    1
  114   109   110    1
  115   109   111    1
  116   111   112    1
  117   109   113    1
  118   113   114    1
  119   113   115    1
  120   115   116    1
  121    87   117    1
  122   113   117    1
  123   117   118    1
  124   117   119    1
  125   119   120    1
  126   106   121    1
  127   119   121    1
  128   119   122    1
  129   122   123    1
  130   122   124    1
  131   122   125    1
  132   125   126    1
  133   127   128    1
  134   127   129    1
  135   127   130    1
  136   127   131    1
  137   131   132    1
  138   131   133    1
  139   131   134    1
  140   134   135    1
  141   134   136    1
  142   134   137    1
  143   137   138    1
  144   137   139    1
  145   137   140    1
  146   140   141    1
  147   140   142    1
  148   140   143    1
  149   143   144    1
  150   143   145    1
  151   143   146    1
  152   146   147    1
  153   146   148    1
  154   146   149    1
  155   149   150    1
  156   149   151    1
  157   149   152    1
  158   152   153    1
  159   152   154    1
  160   152   155    1
@<TRIPOS>SUBSTRUCTURE
       1 MOL1            1 RESIDUE      1      MOL     
       2 MOL1          155 RESIDUE      1      MOL     
@<SCITEGIC>MOL_PROPERTY
VM2 Rank
SciTegic.value.IntegerValue
2

@<SCITEGIC>MOL_PROPERTY
Conf_Id
SciTegic.value.IntegerValue
18834

@<SCITEGIC>MOL_PROPERTY
Probability
SciTegic.value.DoubleValue
3.17

@<SCITEGIC>MOL_PROPERTY
Sum Probability
SciTegic.value.DoubleValue
9.26

@<SCITEGIC>MOL_PROPERTY
Delta G
SciTegic.value.DoubleValue
0.388

@<SCITEGIC>MOL_PROPERTY
G
SciTegic.value.DoubleValue
574.465

@<SCITEGIC>MOL_PROPERTY
E
SciTegic.value.DoubleValue
367.606

@<SCITEGIC>MOL_PROPERTY
-TS
SciTegic.value.DoubleValue
206.859

@<SCITEGIC>MOL_PROPERTY
U+W
SciTegic.value.DoubleValue
230.787

@<SCITEGIC>MOL_PROPERTY
U
SciTegic.value.DoubleValue
303.851

@<SCITEGIC>MOL_PROPERTY
W
SciTegic.value.DoubleValue
-73.064

@<SCITEGIC>MOL_PROPERTY
W(PB)
SciTegic.value.DoubleValue
-79.276

@<SCITEGIC>MOL_PROPERTY
W(SA)
SciTegic.value.DoubleValue
6.212

@<SCITEGIC>MOL_PROPERTY
Valence
SciTegic.value.DoubleValue
146.890

@<SCITEGIC>MOL_PROPERTY
Coulomb
SciTegic.value.DoubleValue
185.791

@<SCITEGIC>MOL_PROPERTY
VdW
SciTegic.value.DoubleValue
-28.829

@<SCITEGIC>MOL_PROPERTY
VdW6
SciTegic.value.DoubleValue
-180.739

@<SCITEGIC>MOL_PROPERTY
VdW12
SciTegic.value.DoubleValue
151.909

@<SCITEGIC>MOL_PROPERTY
Bond
SciTegic.value.DoubleValue
4.305

@<SCITEGIC>MOL_PROPERTY
Angle
SciTegic.value.DoubleValue
9.358

@<SCITEGIC>MOL_PROPERTY
Pdih
SciTegic.value.DoubleValue
133.228

@<SCITEGIC>MOL_PROPERTY
Idih
SciTegic.value.DoubleValue
0.000

@<SCITEGIC>MOL_PROPERTY
Tether
SciTegic.value.DoubleValue
0.000

@<TRIPOS>MOLECULE
CD_guest-3_vm2_single.mol2 : vm2 host+ligand conformer 3
         155         160           2
SMALL
USER_CHARGES
 
@<TRIPOS>ATOM
       1    C1      16.354246   15.186475   21.744556 C.3        1 MOL1         0.2972
       2    H1      15.279368   15.080686   21.940048 H          1 MOL1         0.0751
       3    O1      16.686619   16.517104   21.298243 O.3        1 MOL1        -0.3740
       4    C2      17.167863   14.865967   23.023739 C.3        1 MOL1         0.1003
       5    H2      16.959273   13.820485   23.285759 H          1 MOL1         0.0783
       6    O2      16.782640   15.708739   24.120800 O.3        1 MOL1        -0.5519
       7    H3      15.975007   16.203324   23.838786 H          1 MOL1         0.3769
       8    C3      18.684724   14.999970   22.755649 C.3        1 MOL1         0.1053
       9    H4      18.905257   16.057622   22.573749 H          1 MOL1         0.0783
      10    O3      19.402266   14.558529   23.910979 O.3        1 MOL1        -0.5519
      11    H5      18.936368   14.983556   24.666234 H          1 MOL1         0.3769
      12    C4      19.122559   14.194751   21.505225 C.3        1 MOL1         0.1018
      13    H6      19.193716   13.133234   21.777653 H          1 MOL1         0.0783
      14    C5      18.156193   14.374676   20.299160 C.3        1 MOL1         0.1043
      15    H7      18.322849   15.374233   19.876624 H          1 MOL1         0.0783
      16    O4      16.775631   14.254671   20.726394 O.3        1 MOL1        -0.3740
      17    C6      18.392529   13.348842   19.168551 C.3        1 MOL1         0.0138
      18    H8      19.396283   13.501995   18.750330 H          1 MOL1         0.0794
      19    H9      17.670885   13.538406   18.362680 H          1 MOL1         0.0794
      20    O5      18.258474   12.008619   19.650354 O.3        1 MOL1        -0.5486
      21    H10     17.354984   11.942091   20.032307 H          1 MOL1         0.3769
      22    C7      14.867316   20.238438   20.828002 C.3        1 MOL1         0.2972
      23    H11     14.190088   21.059318   20.558439 H          1 MOL1         0.0751
      24    O6      16.133400   20.725651   21.311097 O.3        1 MOL1        -0.3740
      25    C8      14.246806   19.351116   21.936806 C.3        1 MOL1         0.1003
      26    H12     13.299490   18.956645   21.546837 H          1 MOL1         0.0783
      27    O7      13.984011   20.115613   23.124649 O.3        1 MOL1        -0.5519
      28    H13     14.795129   20.649681   23.321415 H          1 MOL1         0.3769
      29    C9      15.165542   18.147127   22.264477 C.3        1 MOL1         0.1053
      30    H14     16.077405   18.534658   22.739436 H          1 MOL1         0.0783
      31    O8      14.479742   17.276540   23.170329 O.3        1 MOL1        -0.5519
      32    H15     14.038215   17.877813   23.812634 H          1 MOL1         0.3769
      33    C10     15.580887   17.383077   20.976686 C.3        1 MOL1         0.1018
      34    H16     14.726184   16.814732   20.586015 H          1 MOL1         0.0783
      35    C11     16.085166   18.345607   19.870564 C.3        1 MOL1         0.1043
      36    H17     17.049740   18.765268   20.178583 H          1 MOL1         0.0783
      37    O9      15.115178   19.402414   19.678426 O.3        1 MOL1        -0.3740
      38    C12     16.278259   17.634615   18.515183 C.3        1 MOL1         0.0138
      39    H18     16.903026   16.743737   18.657538 H          1 MOL1         0.0794
      40    H19     15.302824   17.300882   18.136831 H          1 MOL1         0.0794
      41    O10     16.904199   18.520463   17.584967 O.3        1 MOL1        -0.5486
      42    H20     16.337889   19.321209   17.546929 H          1 MOL1         0.3769
      43    C13     18.362938   24.163558   21.746576 C.3        1 MOL1         0.2972
      44    H21     18.755508   25.182642   21.855474 H          1 MOL1         0.0751
      45    O11     19.417371   23.195227   21.572895 O.3        1 MOL1        -0.3740
      46    C14     17.544060   23.772478   23.001274 C.3        1 MOL1         0.1003
      47    H22     16.691679   24.460918   23.069302 H          1 MOL1         0.0783
      48    O12     18.339227   23.885711   24.192093 O.3        1 MOL1        -0.5519
      49    H23     19.288673   23.845130   23.915840 H          1 MOL1         0.3769
      50    C15     16.990118   22.337207   22.857237 C.3        1 MOL1         0.1053
      51    H24     17.845304   21.652450   22.877321 H          1 MOL1         0.0783
      52    O13     16.116470   22.046628   23.952663 O.3        1 MOL1        -0.5519
      53    H25     16.590915   22.378565   24.747388 H          1 MOL1         0.3769
      54    C16     16.234542   22.146824   21.517752 C.3        1 MOL1         0.1018
      55    H26     15.247315   22.618662   21.611277 H          1 MOL1         0.0783
      56    C17     16.996276   22.741235   20.297657 C.3        1 MOL1         0.1043
      57    H27     17.845143   22.083021   20.069336 H          1 MOL1         0.0783
      58    O14     17.482326   24.072380   20.607488 O.3        1 MOL1        -0.3740
      59    C18     16.132854   22.845074   19.020784 C.3        1 MOL1         0.0138
      60    H28     15.851639   21.835922   18.693293 H          1 MOL1         0.0794
      61    H29     16.738960   23.289343   18.219852 H          1 MOL1         0.0794
      62    O15     14.961583   23.632928   19.252278 O.3        1 MOL1        -0.5486
      63    H30     15.276844   24.510785   19.562691 H          1 MOL1         0.3769
      64    C19     23.488049   22.754623   20.959674 C.3        1 MOL1         0.2972
      65    H31     24.548643   22.878052   20.705926 H          1 MOL1         0.0751
      66    O16     23.163832   21.370742   21.207555 O.3        1 MOL1        -0.3740
      67    C20     23.103380   23.616486   22.193413 C.3        1 MOL1         0.1003
      68    H32     23.272389   24.665500   21.917517 H          1 MOL1         0.0783
      69    O17     23.905782   23.308576   23.342701 O.3        1 MOL1        -0.5519
      70    H33     23.719704   22.365290   23.580736 H          1 MOL1         0.3769
      71    C21     21.600648   23.448283   22.520304 C.3        1 MOL1         0.1053
      72    H34     21.434229   22.409696   22.839160 H          1 MOL1         0.0783
      73    O18     21.234875   24.343060   23.575170 O.3        1 MOL1        -0.5519
      74    H35     21.966534   24.281396   24.229613 H          1 MOL1         0.3769
      75    C22     20.723420   23.719225   21.272303 C.3        1 MOL1         0.1018
      76    H36     20.700809   24.798408   21.070067 H          1 MOL1         0.0783
      77    C23     21.238316   22.983211   20.007069 C.3        1 MOL1         0.1043
      78    H37     21.023989   21.914231   20.111690 H          1 MOL1         0.0783
      79    O19     22.664687   23.203474   19.861641 O.3        1 MOL1        -0.3740
      80    C24     20.555446   23.487167   18.718671 C.3        1 MOL1         0.0138
      81    H38     20.811889   24.543239   18.560954 H          1 MOL1         0.0794
      82    H39     19.466321   23.422350   18.834482 H          1 MOL1         0.0794
      83    O20     20.972122   22.697612   17.603208 O.3        1 MOL1        -0.5486
      84    H40     21.953808   22.717121   17.609234 H          1 MOL1         0.3769
      85    C25     24.827748   17.675989   22.071985 C.3        1 MOL1         0.2972
      86    H41     25.475437   16.838489   22.361549 H          1 MOL1         0.0751
      87    O21     23.619420   17.216820   21.432798 O.3        1 MOL1        -0.3740
      88    C26     24.456417   18.523062   23.317050 C.3        1 MOL1         0.1003
      89    H42     25.394648   18.903831   23.741321 H          1 MOL1         0.0783
      90    O22     23.771799   17.740807   24.309223 O.3        1 MOL1        -0.5519
      91    H43     23.890855   16.790475   24.066853 H          1 MOL1         0.3769
      92    C27     23.581936   19.731407   22.917098 C.3        1 MOL1         0.1053
      93    H44     22.619187   19.336487   22.578035 H          1 MOL1         0.0783
      94    O23     23.380227   20.561797   24.064193 O.3        1 MOL1        -0.5519
      95    H45     23.166399   19.931015   24.788411 H          1 MOL1         0.3769
      96    C28     24.211576   20.545308   21.757423 C.3        1 MOL1         0.1018
      97    H46     25.040019   21.143654   22.159223 H          1 MOL1         0.0783
      98    C29     24.728273   19.636824   20.605933 C.3        1 MOL1         0.1043
      99    H47     23.856731   19.229715   20.076884 H          1 MOL1         0.0783
     100    O24     25.513008   18.541861   21.143183 O.3        1 MOL1        -0.3740
     101    C30     25.585770   20.387737   19.559303 C.3        1 MOL1         0.0138
     102    H48     24.925972   21.042060   18.973595 H          1 MOL1         0.0794
     103    H49     26.014491   19.652163   18.865551 H          1 MOL1         0.0794
     104    O25     26.625231   21.164674   20.167334 O.3        1 MOL1        -0.5486
     105    H50     27.177145   21.540427   19.447128 H          1 MOL1         0.3769
     106    C31     21.438290   13.785060   20.796683 C.3        1 MOL1         0.2972
     107    H51     21.031925   12.801207   20.528326 H          1 MOL1         0.0751
     108    O26     20.392625   14.733724   21.092442 O.3        1 MOL1        -0.3740
     109    C32     22.395136   13.688542   22.011833 C.3        1 MOL1         0.1003
     110    H52     23.245345   13.065848   21.704134 H          1 MOL1         0.0783
     111    O27     21.762582   13.077540   23.145902 O.3        1 MOL1        -0.5519
     112    H53     20.974243   13.631435   23.376928 H          1 MOL1         0.3769
     113    C33     22.940693   15.090040   22.378792 C.3        1 MOL1         0.1053
     114    H54     22.101559   15.696249   22.748591 H          1 MOL1         0.0783
     115    O28     23.926548   14.948828   23.407384 O.3        1 MOL1        -0.5519
     116    H55     23.561520   14.267298   24.016793 H          1 MOL1         0.3769
     117    C34     23.547841   15.807598   21.140005 C.3        1 MOL1         0.1018
     118    H56     24.541178   15.391386   20.924762 H          1 MOL1         0.0783
     119    C35     22.673265   15.678453   19.862375 C.3        1 MOL1         0.1043
     120    H57     21.812604   16.353433   19.950886 H          1 MOL1         0.0783
     121    O29     22.218109   14.312080   19.703988 O.3        1 MOL1        -0.3740
     122    C36     23.463083   16.057913   18.591517 C.3        1 MOL1         0.0138
     123    H58     24.271456   15.330850   18.436694 H          1 MOL1         0.0794
     124    H59     23.925131   17.044018   18.733374 H          1 MOL1         0.0794
     125    O30     22.591851   16.087219   17.459315 O.3        1 MOL1        -0.5486
     126    H60     22.129460   15.220679   17.447846 H          1 MOL1         0.3769
     127    C1      18.613476   18.980400   24.539044 C.3        1 MOL1        -0.2427
     128    H1      18.065938   18.036038   24.434328 H          1 MOL1         0.0958
     129    H2      19.006007   19.029218   25.562655 H          1 MOL1         0.0958
     130    H3      17.899471   19.803358   24.411626 H          1 MOL1         0.0958
     131    C2      19.760652   19.069328   23.511986 C.3        1 MOL1        -0.1412
     132    H4      20.464415   18.241393   23.680047 H          1 MOL1         0.0947
     133    H5      20.321924   20.001018   23.670814 H          1 MOL1         0.0947
     134    C3      19.232623   19.020422   22.062590 C.3        1 MOL1        -0.1437
     135    H6      18.644411   18.109727   21.911766 H          1 MOL1         0.0947
     136    H7      18.555210   19.862323   21.887552 H          1 MOL1         0.0947
     137    C4      20.377321   19.070664   21.034866 C.3        1 MOL1        -0.1437
     138    H8      21.047827   18.215246   21.190241 H          1 MOL1         0.0947
     139    H9      20.966119   19.978089   21.206396 H          1 MOL1         0.0947
     140    C5      19.859158   19.067778   19.582894 C.3        1 MOL1        -0.1437
     141    H10     19.302076   18.139921   19.392617 H          1 MOL1         0.0947
     142    H11     19.156758   19.899994   19.436468 H          1 MOL1         0.0947
     143    C6      21.017445   19.191404   18.571717 C.3        1 MOL1        -0.1437
     144    H12     21.721383   18.364135   18.718188 H          1 MOL1         0.0947
     145    H13     21.577889   20.117522   18.756046 H          1 MOL1         0.0947
     146    C7      20.507096   19.180045   17.117017 C.3        1 MOL1        -0.1477
     147    H14     19.925986   18.265753   16.935277 H          1 MOL1         0.0947
     148    H15     19.830592   20.030692   16.957445 H          1 MOL1         0.0947
     149    C8      21.675383   19.253339   16.120673 C.3        1 MOL1         0.0145
     150    H16     22.331570   18.389310   16.261761 H          1 MOL1         0.0921
     151    H17     22.254476   20.163002   16.300888 H          1 MOL1         0.0921
     152    N1      21.219407   19.267162   14.676847 N.4        1 MOL1        -0.5969
     153    H18     20.686059   18.423890   14.441750 H          1 MOL1         0.3603
     154    H19     22.011937   19.314221   14.027802 H          1 MOL1         0.3603
     155    H20     20.617686   20.073370   14.479214 H          1 MOL1         0.3603
@<TRIPOS>BOND
    1     1     2    1
    2     1     3    1
    3     1     4    1
    4     4     5    1
    5     4     6    1
    6     6     7    1
    7     4     8    1
    8     8     9    1
    9     8    10    1
   10    10    11    1
   11     8    12    1
   12    12    13    1
   13    12    14    1
   14    14    15    1
   15     1    16    1
   16    14    16    1
   17    14    17    1
   18    17    18    1
   19    17    19    1
   20    17    20    1
   21    20    21    1
   22    22    23    1
   23    22    24    1
   24    22    25    1
   25    25    26    1
   26    25    27    1
   27    27    28    1
   28    25    29    1
   29    29    30    1
   30    29    31    1
   31    31    32    1
   32     3    33    1
   33    29    33    1
   34    33    34    1
   35    33    35    1
   36    35    36    1
   37    22    37    1
   38    35    37    1
   39    35    38    1
   40    38    39    1
   41    38    40    1
   42    38    41    1
   43    41    42    1
   44    43    44    1
   45    43    45    1
   46    43    46    1
   47    46    47    1
   48    46    48    1
   49    48    49    1
   50    46    50    1
   51    50    51    1
   52    50    52    1
   53    52    53    1
   54    24    54    1
   55    50    54    1
   56    54    55    1
   57    54    56    1
   58    56    57    1
   59    43    58    1
   60    56    58    1
   61    56    59    1
   62    59    60    1
   63    59    61    1
   64    59    62    1
   65    62    63    1
   66    64    65    1
   67    64    66    1
   68    64    67    1
   69    67    68    1
   70    67    69    1
   71    69    70    1
   72    67    71    1
   73    71    72    1
   74    71    73    1
   75    73    74    1
   76    45    75    1
   77    71    75    1
   78    75    76    1
   79    75    77    1
   80    77    78    1
   81    64    79    1
   82    77    79    1
   83    77    80    1
   84    80    81    1
   85    80    82    1
   86    80    83    1
   87    83    84    1
   88    85    86    1
   89    85    87    1
   90    85    88    1
   91    88    89    1
   92    88    90    1
   93    90    91    1
   94    88    92    1
   95    92    93    1
   96    92    94    1
   97    94    95    1
   98    66    96    1
   99    92    96    1
  100    96    97    1
  101    96    98    1
  102    98    99    1
  103    85   100    1
  104    98   100    1
  105    98   101    1
  106   101   102    1
  107   101   103    1
  108   101   104    1
  109   104   105    1
  110   106   107    1
  111    12   108    1
  112   106   108    1
  113   106   109    1
  114   109   110    1
  115   109   111    1
  116   111   112    1
  117   109   113    1
  118   113   114    1
  119   113   115    1
  120   115   116    1
  121    87   117    1
  122   113   117    1
  123   117   118    1
  124   117   119    1
  125   119   120    1
  126   106   121    1
  127   119   121    1
  128   119   122    1
  129   122   123    1
  130   122   124    1
  131   122   125    1
  132   125   126    1
  133   127   128    1
  134   127   129    1
  135   127   130    1
  136   127   131    1
  137   131   132    1
  138   131   133    1
  139   131   134    1
  140   134   135    1
  141   134   136    1
  142   134   137    1
  143   137   138    1
  144   137   139    1
  145   137   140    1
  146   140   141    1
  147   140   142    1
  148   140   143    1
  149   143   144    1
  150   143   145    1
  151   143   146    1
  152   146   147    1
  153   146   148    1
  154   146   149    1
  155   149   150    1
  156   149   151    1
  157   149   152    1
  158   152   153    1
  159   152   154    1
  160   152   155    1
@<TRIPOS>SUBSTRUCTURE
       1 MOL1            1 RESIDUE      1      MOL     
       2 MOL1          155 RESIDUE      1      MOL     
@<SCITEGIC>MOL_PROPERTY
VM2 Rank
SciTegic.value.IntegerValue
3

@<SCITEGIC>MOL_PROPERTY
Conf_Id
SciTegic.value.IntegerValue
24435

@<SCITEGIC>MOL_PROPERTY
Probability
SciTegic.value.DoubleValue
2.40

@<SCITEGIC>MOL_PROPERTY
Sum Probability
SciTegic.value.DoubleValue
11.66

@<SCITEGIC>MOL_PROPERTY
Delta G
SciTegic.value.DoubleValue
0.555

@<SCITEGIC>MOL_PROPERTY
G
SciTegic.value.DoubleValue
574.632

@<SCITEGIC>MOL_PROPERTY
E
SciTegic.value.DoubleValue
367.668

@<SCITEGIC>MOL_PROPERTY
-TS
SciTegic.value.DoubleValue
206.964

@<SCITEGIC>MOL_PROPERTY
U+W
SciTegic.value.DoubleValue
230.849

@<SCITEGIC>MOL_PROPERTY
U
SciTegic.value.DoubleValue
303.865

@<SCITEGIC>MOL_PROPERTY
W
SciTegic.value.DoubleValue
-73.016

@<SCITEGIC>MOL_PROPERTY
W(PB)
SciTegic.value.DoubleValue
-79.193

@<SCITEGIC>MOL_PROPERTY
W(SA)
SciTegic.value.DoubleValue
6.178

@<SCITEGIC>MOL_PROPERTY
Valence
SciTegic.value.DoubleValue
146.866

@<SCITEGIC>MOL_PROPERTY
Coulomb
SciTegic.value.DoubleValue
185.775

@<SCITEGIC>MOL_PROPERTY
VdW
SciTegic.value.DoubleValue
-28.777

@<SCITEGIC>MOL_PROPERTY
VdW6
SciTegic.value.DoubleValue
-180.741

@<SCITEGIC>MOL_PROPERTY
VdW12
SciTegic.value.DoubleValue
151.965

@<SCITEGIC>MOL_PROPERTY
Bond
SciTegic.value.DoubleValue
4.304

@<SCITEGIC>MOL_PROPERTY
Angle
SciTegic.value.DoubleValue
9.384

@<SCITEGIC>MOL_PROPERTY
Pdih
SciTegic.value.DoubleValue
133.178

@<SCITEGIC>MOL_PROPERTY
Idih
SciTegic.value.DoubleValue
0.000

@<SCITEGIC>MOL_PROPERTY
Tether
SciTegic.value.DoubleValue
0.000

@<TRIPOS>MOLECULE
CD_guest-3_vm2_single.mol2 : vm2 host+ligand conformer 4
         155         160           2
SMALL
USER_CHARGES
 
@<TRIPOS>ATOM
       1    C1      16.371011   15.206443   21.760445 C.3        1 MOL1         0.2972
       2    H1      15.300332   15.098404   21.976339 H          1 MOL1         0.0751
       3    O1      16.688582   16.531677   21.287907 O.3        1 MOL1        -0.3740
       4    C2      17.209443   14.909647   23.029509 C.3        1 MOL1         0.1003
       5    H2      17.008302   13.868338   23.313076 H          1 MOL1         0.0783
       6    O2      16.843901   15.770191   24.119415 O.3        1 MOL1        -0.5519
       7    H3      16.005535   16.225244   23.862424 H          1 MOL1         0.3769
       8    C3      18.720549   15.042919   22.730744 C.3        1 MOL1         0.1053
       9    H4      18.934498   16.097529   22.523907 H          1 MOL1         0.0783
      10    O3      19.459918   14.625738   23.881335 O.3        1 MOL1        -0.5519
      11    H5      19.006972   15.065791   24.635913 H          1 MOL1         0.3769
      12    C4      19.136944   14.215600   21.487568 C.3        1 MOL1         0.1018
      13    H6      19.211367   13.158537   21.775921 H          1 MOL1         0.0783
      14    C5      18.149878   14.377541   20.295917 C.3        1 MOL1         0.1043
      15    H7      18.306582   15.371653   19.856953 H          1 MOL1         0.0783
      16    O4      16.777542   14.260551   20.749146 O.3        1 MOL1        -0.3740
      17    C6      18.368625   13.336635   19.175565 C.3        1 MOL1         0.0138
      18    H8      19.364310   13.486481   18.737341 H          1 MOL1         0.0794
      19    H9      17.632151   13.513242   18.380235 H          1 MOL1         0.0794
      20    O5      18.246919   12.002844   19.678063 O.3        1 MOL1        -0.5486
      21    H10     17.350551   11.939243   20.076919 H          1 MOL1         0.3769
      22    C7      14.841786   20.246806   20.874433 C.3        1 MOL1         0.2972
      23    H11     14.157027   21.066263   20.620445 H          1 MOL1         0.0751
      24    O6      16.106996   20.735134   21.358121 O.3        1 MOL1        -0.3740
      25    C8      14.236248   19.346240   21.980075 C.3        1 MOL1         0.1003
      26    H12     13.286146   18.951853   21.596874 H          1 MOL1         0.0783
      27    O7      13.985125   20.100229   23.177362 O.3        1 MOL1        -0.5519
      28    H13     14.785023   20.658842   23.350122 H          1 MOL1         0.3769
      29    C9      15.163302   18.143271   22.287918 C.3        1 MOL1         0.1053
      30    H14     16.076614   18.530340   22.760456 H          1 MOL1         0.0783
      31    O8      14.486833   17.262116   23.190724 O.3        1 MOL1        -0.5519
      32    H15     14.046804   17.856567   23.840463 H          1 MOL1         0.3769
      33    C10     15.573648   17.394448   20.988904 C.3        1 MOL1         0.1018
      34    H16     14.719561   16.824496   20.599297 H          1 MOL1         0.0783
      35    C11     16.063024   18.371845   19.889068 C.3        1 MOL1         0.1043
      36    H17     17.026400   18.795658   20.195052 H          1 MOL1         0.0783
      37    O9      15.084801   19.423679   19.714524 O.3        1 MOL1        -0.3740
      38    C12     16.252593   17.675811   18.525419 C.3        1 MOL1         0.0138
      39    H18     16.892076   16.793170   18.653836 H          1 MOL1         0.0794
      40    H19     15.278422   17.330818   18.153986 H          1 MOL1         0.0794
      41    O10     16.855733   18.578923   17.596732 O.3        1 MOL1        -0.5486
      42    H20     16.270764   19.366055   17.563169 H          1 MOL1         0.3769
      43    C13     18.353689   24.176754   21.701615 C.3        1 MOL1         0.2972
      44    H21     18.744200   25.199339   21.780111 H          1 MOL1         0.0751
      45    O11     19.411308   23.203194   21.583547 O.3        1 MOL1        -0.3740
      46    C14     17.514780   23.831622   22.956514 C.3        1 MOL1         0.1003
      47    H22     16.662488   24.522905   22.987069 H          1 MOL1         0.0783
      48    O12     18.293433   23.986017   24.153789 O.3        1 MOL1        -0.5519
      49    H23     19.245545   23.898807   23.897813 H          1 MOL1         0.3769
      50    C15     16.961103   22.392725   22.854398 C.3        1 MOL1         0.1053
      51    H24     17.814749   21.707743   22.905284 H          1 MOL1         0.0783
      52    O13     16.074772   22.136993   23.948720 O.3        1 MOL1        -0.5519
      53    H25     16.539142   22.495234   24.737867 H          1 MOL1         0.3769
      54    C16     16.220805   22.161915   21.513487 C.3        1 MOL1         0.1018
      55    H26     15.238595   22.648509   21.579288 H          1 MOL1         0.0783
      56    C17     17.003448   22.706251   20.283687 C.3        1 MOL1         0.1043
      57    H27     17.856494   22.039511   20.101697 H          1 MOL1         0.0783
      58    O14     17.494512   24.044649   20.551043 O.3        1 MOL1        -0.3740
      59    C18     16.169857   22.745591   18.980557 C.3        1 MOL1         0.0138
      60    H28     16.023130   21.715910   18.629106 H          1 MOL1         0.0794
      61    H29     16.749337   23.271804   18.210153 H          1 MOL1         0.0794
      62    O15     14.899106   23.380797   19.169702 O.3        1 MOL1        -0.5486
      63    H30     14.456384   23.428157   18.294485 H          1 MOL1         0.3769
      64    C19     23.485819   22.746959   20.981321 C.3        1 MOL1         0.2972
      65    H31     24.547257   22.872175   20.731163 H          1 MOL1         0.0751
      66    O16     23.162494   21.361750   21.223358 O.3        1 MOL1        -0.3740
      67    C20     23.097113   23.604011   22.217207 C.3        1 MOL1         0.1003
      68    H32     23.269543   24.653909   21.946837 H          1 MOL1         0.0783
      69    O17     23.894071   23.289035   23.368429 O.3        1 MOL1        -0.5519
      70    H33     23.702802   22.346046   23.603482 H          1 MOL1         0.3769
      71    C21     21.592572   23.437662   22.536774 C.3        1 MOL1         0.1053
      72    H34     21.422053   22.398141   22.850301 H          1 MOL1         0.0783
      73    O18     21.223578   24.329034   23.593498 O.3        1 MOL1        -0.5519
      74    H35     21.949850   24.260552   24.253110 H          1 MOL1         0.3769
      75    C22     20.722289   23.716423   21.285897 C.3        1 MOL1         0.1018
      76    H36     20.709939   24.796154   21.085874 H          1 MOL1         0.0783
      77    C23     21.238499   22.977481   20.022895 C.3        1 MOL1         0.1043
      78    H37     21.023348   21.908718   20.129167 H          1 MOL1         0.0783
      79    O19     22.665413   23.197468   19.881761 O.3        1 MOL1        -0.3740
      80    C24     20.560612   23.478877   18.730823 C.3        1 MOL1         0.0138
      81    H38     20.814782   24.535579   18.573713 H          1 MOL1         0.0794
      82    H39     19.471189   23.410713   18.840686 H          1 MOL1         0.0794
      83    O20     20.985177   22.689706   17.618023 O.3        1 MOL1        -0.5486
      84    H40     21.966809   22.710602   17.630113 H          1 MOL1         0.3769
      85    C25     24.831619   17.667270   22.075373 C.3        1 MOL1         0.2972
      86    H41     25.478211   16.828166   22.362833 H          1 MOL1         0.0751
      87    O21     23.628653   17.212791   21.423248 O.3        1 MOL1        -0.3740
      88    C26     24.449145   18.504209   23.324048 C.3        1 MOL1         0.1003
      89    H42     25.383245   18.883412   23.758619 H          1 MOL1         0.0783
      90    O22     23.758748   17.713562   24.305267 O.3        1 MOL1        -0.5519
      91    H43     23.880349   16.765255   24.056383 H          1 MOL1         0.3769
      92    C27     23.575279   19.714041   22.926475 C.3        1 MOL1         0.1053
      93    H44     22.614445   19.319481   22.581348 H          1 MOL1         0.0783
      94    O23     23.368518   20.538459   24.076802 O.3        1 MOL1        -0.5519
      95    H45     23.150905   19.904209   24.796834 H          1 MOL1         0.3769
      96    C28     24.208611   20.535467   21.773838 C.3        1 MOL1         0.1018
      97    H46     25.033397   21.134688   22.181809 H          1 MOL1         0.0783
      98    C29     24.732752   19.633885   20.620332 C.3        1 MOL1         0.1043
      99    H47     23.867136   19.230154   20.078612 H          1 MOL1         0.0783
     100    O24     25.522329   18.543359   21.159101 O.3        1 MOL1        -0.3740
     101    C30     25.607781   20.390378   19.596308 C.3        1 MOL1         0.0138
     102    H48     24.991928   21.142951   19.086287 H          1 MOL1         0.0794
     103    H49     25.952585   19.679984   18.833020 H          1 MOL1         0.0794
     104    O25     26.725191   21.016991   20.232512 O.3        1 MOL1        -0.5486
     105    H50     27.222168   20.300417   20.686360 H          1 MOL1         0.3769
     106    C31     21.443306   13.793037   20.751730 C.3        1 MOL1         0.2972
     107    H51     21.033228   12.813138   20.474744 H          1 MOL1         0.0751
     108    O26     20.400269   14.745908   21.044304 O.3        1 MOL1        -0.3740
     109    C32     22.394583   13.683783   21.970595 C.3        1 MOL1         0.1003
     110    H52     23.244051   13.060955   21.661111 H          1 MOL1         0.0783
     111    O27     21.756712   13.065469   23.097562 O.3        1 MOL1        -0.5519
     112    H53     20.983117   13.633239   23.343952 H          1 MOL1         0.3769
     113    C33     22.943132   15.080526   22.350754 C.3        1 MOL1         0.1053
     114    H54     22.104197   15.686486   22.721463 H          1 MOL1         0.0783
     115    O28     23.924102   14.928625   23.382516 O.3        1 MOL1        -0.5519
     116    H55     23.554892   14.243302   23.985082 H          1 MOL1         0.3769
     117    C34     23.557996   15.805814   21.120312 C.3        1 MOL1         0.1018
     118    H56     24.552139   15.390313   20.907471 H          1 MOL1         0.0783
     119    C35     22.689978   15.687350   19.837295 C.3        1 MOL1         0.1043
     120    H57     21.830529   16.363546   19.927256 H          1 MOL1         0.0783
     121    O29     22.232233   14.323149   19.667079 O.3        1 MOL1        -0.3740
     122    C36     23.485623   16.075495   18.572795 C.3        1 MOL1         0.0138
     123    H58     24.295371   15.350131   18.417211 H          1 MOL1         0.0794
     124    H59     23.945803   17.061209   18.723105 H          1 MOL1         0.0794
     125    O30     22.619584   16.111230   17.436817 O.3        1 MOL1        -0.5486
     126    H60     22.156283   15.245201   17.419210 H          1 MOL1         0.3769
     127    C1      18.620139   19.062895   24.573686 C.3        1 MOL1        -0.2427
     128    H1      18.039382   18.137377   24.479908 H          1 MOL1         0.0958
     129    H2      19.024104   19.103779   25.593188 H          1 MOL1         0.0958
     130    H3      17.933506   19.909134   24.448565 H          1 MOL1         0.0958
     131    C2      19.759895   19.106525   23.535331 C.3        1 MOL1        -0.1412
     132    H4      20.437112   18.256633   23.702844 H          1 MOL1         0.0947
     133    H5      20.353312   20.019934   23.682654 H          1 MOL1         0.0947
     134    C3      19.217555   19.065624   22.090928 C.3        1 MOL1        -0.1437
     135    H6      18.594866   18.175714   21.953465 H          1 MOL1         0.0947
     136    H7      18.569607   19.930635   21.915638 H          1 MOL1         0.0947
     137    C4      20.354662   19.068187   21.052719 C.3        1 MOL1        -0.1437
     138    H8      20.999191   18.192810   21.209068 H          1 MOL1         0.0947
     139    H9      20.973696   19.957568   21.211328 H          1 MOL1         0.0947
     140    C5      19.824429   19.072013   19.605018 C.3        1 MOL1        -0.1437
     141    H10     19.253590   18.151637   19.419593 H          1 MOL1         0.0947
     142    H11     19.132074   19.913478   19.464494 H          1 MOL1         0.0947
     143    C6      20.974835   19.182201   18.583214 C.3        1 MOL1        -0.1437
     144    H12     21.668095   18.344178   18.718689 H          1 MOL1         0.0947
     145    H13     21.550584   20.099258   18.766049 H          1 MOL1         0.0947
     146    C7      20.450205   19.185925   17.133530 C.3        1 MOL1        -0.1477
     147    H14     19.857523   18.279222   16.951296 H          1 MOL1         0.0947
     148    H15     19.781281   20.044761   16.986305 H          1 MOL1         0.0947
     149    C8      21.609367   19.254587   16.126223 C.3        1 MOL1         0.0145
     150    H16     22.258416   18.383216   16.254490 H          1 MOL1         0.0921
     151    H17     22.199272   20.157117   16.307351 H          1 MOL1         0.0921
     152    N1      21.139355   19.283915   14.687125 N.4        1 MOL1        -0.5969
     153    H18     20.594393   18.448384   14.451104 H          1 MOL1         0.3603
     154    H19     21.925988   19.327155   14.030682 H          1 MOL1         0.3603
     155    H20     20.544748   20.098202   14.501429 H          1 MOL1         0.3603
@<TRIPOS>BOND
    1     1     2    1
    2     1     3    1
    3     1     4    1
    4     4     5    1
    5     4     6    1
    6     6     7    1
    7     4     8    1
    8     8     9    1
    9     8    10    1
   10    10    11    1
   11     8    12    1
   12    12    13    1
   13    12    14    1
   14    14    15    1
   15     1    16    1
   16    14    16    1
   17    14    17    1
   18    17    18    1
   19    17    19    1
   20    17    20    1
   21    20    21    1
   22    22    23    1
   23    22    24    1
   24    22    25    1
   25    25    26    1
   26    25    27    1
   27    27    28    1
   28    25    29    1
   29    29    30    1
   30    29    31    1
   31    31    32    1
   32     3    33    1
   33    29    33    1
   34    33    34    1
   35    33    35    1
   36    35    36    1
   37    22    37    1
   38    35    37    1
   39    35    38    1
   40    38    39    1
   41    38    40    1
   42    38    41    1
   43    41    42    1
   44    43    44    1
   45    43    45    1
   46    43    46    1
   47    46    47    1
   48    46    48    1
   49    48    49    1
   50    46    50    1
   51    50    51    1
   52    50    52    1
   53    52    53    1
   54    24    54    1
   55    50    54    1
   56    54    55    1
   57    54    56    1
   58    56    57    1
   59    43    58    1
   60    56    58    1
   61    56    59    1
   62    59    60    1
   63    59    61    1
   64    59    62    1
   65    62    63    1
   66    64    65    1
   67    64    66    1
   68    64    67    1
   69    67    68    1
   70    67    69    1
   71    69    70    1
   72    67    71    1
   73    71    72    1
   74    71    73    1
   75    73    74    1
   76    45    75    1
   77    71    75    1
   78    75    76    1
   79    75    77    1
   80    77    78    1
   81    64    79    1
   82    77    79    1
   83    77    80    1
   84    80    81    1
   85    80    82    1
   86    80    83    1
   87    83    84    1
   88    85    86    1
   89    85    87    1
   90    85    88    1
   91    88    89    1
   92    88    90    1
   93    90    91    1
   94    88    92    1
   95    92    93    1
   96    92    94    1
   97    94    95    1
   98    66    96    1
   99    92    96    1
  100    96    97    1
  101    96    98    1
  102    98    99    1
  103    85   100    1
  104    98   100    1
  105    98   101    1
  106   101   102    1
  107   101   103    1
  108   101   104    1
  109   104   105    1
  110   106   107    1
  111    12   108    1
  112   106   108    1
  113   106   109    1
  114   109   110    1
  115   109   111    1
  116   111   112    1
  117   109   113    1
  118   113   114    1
  119   113   115    1
  120   115   116    1
  121    87   117    1
  122   113   117    1
  123   117   118    1
  124   117   119    1
  125   119   120    1
  126   106   121    1
  127   119   121    1
  128   119   122    1
  129   122   123    1
  130   122   124    1
  131   122   125    1
  132   125   126    1
  133   127   128    1
  134   127   129    1
  135   127   130    1
  136   127   131    1
  137   131   132    1
  138   131   133    1
  139   131   134    1
  140   134   135    1
  141   134   136    1
  142   134   137    1
  143   137   138    1
  144   137   139    1
  145   137   140    1
  146   140   141    1
  147   140   142    1
  148   140   143    1
  149   143   144    1
  150   143   145    1
  151   143   146    1
  152   146   147    1
  153   146   148    1
  154   146   149    1
  155   149   150    1
  156   149   151    1
  157   149   152    1
  158   152   153    1
  159   152   154    1
  160   152   155    1
@<TRIPOS>SUBSTRUCTURE
       1 MOL1            1 RESIDUE      1      MOL     
       2 MOL1          155 RESIDUE      1      MOL     
@<SCITEGIC>MOL_PROPERTY
VM2 Rank
SciTegic.value.IntegerValue
4

@<SCITEGIC>MOL_PROPERTY
Conf_Id
SciTegic.value.IntegerValue
15908

@<SCITEGIC>MOL_PROPERTY
Probability
SciTegic.value.DoubleValue
1.84

@<SCITEGIC>MOL_PROPERTY
Sum Probability
SciTegic.value.DoubleValue
13.50

@<SCITEGIC>MOL_PROPERTY
Delta G
SciTegic.value.DoubleValue
0.714

@<SCITEGIC>MOL_PROPERTY
G
SciTegic.value.DoubleValue
574.791

@<SCITEGIC>MOL_PROPERTY
E
SciTegic.value.DoubleValue
367.683

@<SCITEGIC>MOL_PROPERTY
-TS
SciTegic.value.DoubleValue
207.108

@<SCITEGIC>MOL_PROPERTY
U+W
SciTegic.value.DoubleValue
230.864

@<SCITEGIC>MOL_PROPERTY
U
SciTegic.value.DoubleValue
303.666

@<SCITEGIC>MOL_PROPERTY
W
SciTegic.value.DoubleValue
-72.802

@<SCITEGIC>MOL_PROPERTY
W(PB)
SciTegic.value.DoubleValue
-78.971

@<SCITEGIC>MOL_PROPERTY
W(SA)
SciTegic.value.DoubleValue
6.169

@<SCITEGIC>MOL_PROPERTY
Valence
SciTegic.value.DoubleValue
146.682

@<SCITEGIC>MOL_PROPERTY
Coulomb
SciTegic.value.DoubleValue
185.781

@<SCITEGIC>MOL_PROPERTY
VdW
SciTegic.value.DoubleValue
-28.797

@<SCITEGIC>MOL_PROPERTY
VdW6
SciTegic.value.DoubleValue
-180.883

@<SCITEGIC>MOL_PROPERTY
VdW12
SciTegic.value.DoubleValue
152.086

@<SCITEGIC>MOL_PROPERTY
Bond
SciTegic.value.DoubleValue
4.296

@<SCITEGIC>MOL_PROPERTY
Angle
SciTegic.value.DoubleValue
9.393

@<SCITEGIC>MOL_PROPERTY
Pdih
SciTegic.value.DoubleValue
132.993

@<SCITEGIC>MOL_PROPERTY
Idih
SciTegic.value.DoubleValue
0.000

@<SCITEGIC>MOL_PROPERTY
Tether
SciTegic.value.DoubleValue
0.000

@<TRIPOS>MOLECULE
CD_guest-3_vm2_single.mol2 : vm2 host+ligand conformer 5
         155         160           2
SMALL
USER_CHARGES
 
@<TRIPOS>ATOM
       1    C1      16.419671   15.285179   21.787809 C.3        1 MOL1         0.2972
       2    H1      15.364187   15.148380   22.055449 H          1 MOL1         0.0751
       3    O1      16.663354   16.595983   21.238446 O.3        1 MOL1        -0.3740
       4    C2      17.323115   15.083192   23.031787 C.3        1 MOL1         0.1003
       5    H2      17.162154   14.055653   23.383126 H          1 MOL1         0.0783
       6    O2      16.987577   15.996010   24.088183 O.3        1 MOL1        -0.5519
       7    H3      16.085114   16.346354   23.893764 H          1 MOL1         0.3769
       8    C3      18.815088   15.234696   22.656460 C.3        1 MOL1         0.1053
       9    H4      18.989315   16.276830   22.364175 H          1 MOL1         0.0783
      10    O3      19.612519   14.917310   23.800273 O.3        1 MOL1        -0.5519
      11    H5      19.177699   15.398414   24.540421 H          1 MOL1         0.3769
      12    C4      19.192563   14.330321   21.456135 C.3        1 MOL1         0.1018
      13    H6      19.259021   13.290642   21.803328 H          1 MOL1         0.0783
      14    C5      18.166094   14.436754   20.292982 C.3        1 MOL1         0.1043
      15    H7      18.286975   15.419026   19.817029 H          1 MOL1         0.0783
      16    O4      16.814701   14.306954   20.802144 O.3        1 MOL1        -0.3740
      17    C6      18.365114   13.361827   19.201304 C.3        1 MOL1         0.0138
      18    H8      19.340826   13.515871   18.721530 H          1 MOL1         0.0794
      19    H9      17.596593   13.496360   18.428391 H          1 MOL1         0.0794
      20    O5      18.289874   12.043992   19.752831 O.3        1 MOL1        -0.5486
      21    H10     17.409955   11.976355   20.186079 H          1 MOL1         0.3769
      22    C7      14.723258   20.260055   20.919202 C.3        1 MOL1         0.2972
      23    H11     14.026982   21.080260   20.701614 H          1 MOL1         0.0751
      24    O6      16.009221   20.743796   21.352424 O.3        1 MOL1        -0.3740
      25    C8      14.166710   19.345904   22.038180 C.3        1 MOL1         0.1003
      26    H12     13.212337   18.936914   21.681729 H          1 MOL1         0.0783
      27    O7      13.937839   20.089405   23.246114 O.3        1 MOL1        -0.5519
      28    H13     14.728610   20.667770   23.394504 H          1 MOL1         0.3769
      29    C9      15.123510   18.157586   22.309409 C.3        1 MOL1         0.1053
      30    H14     16.044432   18.558115   22.755249 H          1 MOL1         0.0783
      31    O8      14.488394   17.264121   23.230270 O.3        1 MOL1        -0.5519
      32    H15     14.052742   17.851058   23.889912 H          1 MOL1         0.3769
      33    C10     15.505409   17.419682   20.993701 C.3        1 MOL1         0.1018
      34    H16     14.655611   16.818906   20.643063 H          1 MOL1         0.0783
      35    C11     15.915349   18.405623   19.868720 C.3        1 MOL1         0.1043
      36    H17     16.886549   18.845940   20.122476 H          1 MOL1         0.0783
      37    O9      14.915144   19.443780   19.745804 O.3        1 MOL1        -0.3740
      38    C12     16.043074   17.710201   18.497743 C.3        1 MOL1         0.0138
      39    H18     16.713273   16.845541   18.590501 H          1 MOL1         0.0794
      40    H19     15.058428   17.337765   18.185069 H          1 MOL1         0.0794
      41    O10     16.564677   18.627020   17.533983 O.3        1 MOL1        -0.5486
      42    H20     15.960565   19.400632   17.539609 H          1 MOL1         0.3769
      43    C13     18.329521   24.126654   21.682008 C.3        1 MOL1         0.2972
      44    H21     18.746240   25.139209   21.755910 H          1 MOL1         0.0751
      45    O11     19.363018   23.125613   21.568834 O.3        1 MOL1        -0.3740
      46    C14     17.475273   23.814816   22.935586 C.3        1 MOL1         0.1003
      47    H22     16.644873   24.532512   22.957492 H          1 MOL1         0.0783
      48    O12     18.249843   23.952748   24.137107 O.3        1 MOL1        -0.5519
      49    H23     19.202454   23.855887   23.885599 H          1 MOL1         0.3769
      50    C15     16.876270   22.394299   22.841419 C.3        1 MOL1         0.1053
      51    H24     17.705839   21.683003   22.905705 H          1 MOL1         0.0783
      52    O13     15.974977   22.177421   23.931318 O.3        1 MOL1        -0.5519
      53    H25     16.444877   22.528963   24.720370 H          1 MOL1         0.3769
      54    C16     16.142244   22.169131   21.496531 C.3        1 MOL1         0.1018
      55    H26     15.167437   22.672080   21.547485 H          1 MOL1         0.0783
      56    C17     16.945590   22.685523   20.268450 C.3        1 MOL1         0.1043
      57    H27     17.776866   21.992009   20.085892 H          1 MOL1         0.0783
      58    O14     17.468639   24.012659   20.530054 O.3        1 MOL1        -0.3740
      59    C18     16.108182   22.759812   18.972586 C.3        1 MOL1         0.0138
      60    H28     15.789873   21.747853   18.691384 H          1 MOL1         0.0794
      61    H29     16.745007   23.137854   18.161570 H          1 MOL1         0.0794
      62    O15     14.967592   23.605901   19.143773 O.3        1 MOL1        -0.5486
      63    H30     15.314500   24.482747   19.421599 H          1 MOL1         0.3769
      64    C19     23.463907   22.677822   21.000983 C.3        1 MOL1         0.2972
      65    H31     24.523071   22.827079   20.754497 H          1 MOL1         0.0751
      66    O16     23.173206   21.287055   21.247354 O.3        1 MOL1        -0.3740
      67    C20     23.051550   23.530084   22.232936 C.3        1 MOL1         0.1003
      68    H32     23.212608   24.581763   21.962463 H          1 MOL1         0.0783
      69    O17     23.842656   23.228319   23.391800 O.3        1 MOL1        -0.5519
      70    H33     23.667666   22.281268   23.623392 H          1 MOL1         0.3769
      71    C21     21.546416   23.346509   22.541350 C.3        1 MOL1         0.1053
      72    H34     21.383514   22.306434   22.857005 H          1 MOL1         0.0783
      73    O18     21.162259   24.240040   23.590730 O.3        1 MOL1        -0.5519
      74    H35     21.885009   24.181482   24.255232 H          1 MOL1         0.3769
      75    C22     20.686991   23.613315   21.280736 C.3        1 MOL1         0.1018
      76    H36     20.691402   24.689790   21.063493 H          1 MOL1         0.0783
      77    C23     21.215202   22.854266   20.034991 C.3        1 MOL1         0.1043
      78    H37     21.019394   21.782361   20.159392 H          1 MOL1         0.0783
      79    O19     22.637950   23.101237   19.895087 O.3        1 MOL1        -0.3740
      80    C24     20.535722   23.326232   18.732869 C.3        1 MOL1         0.0138
      81    H38     20.751597   24.391515   18.576482 H          1 MOL1         0.0794
      82    H39     19.448338   23.216559   18.827827 H          1 MOL1         0.0794
      83    O20     21.007614   22.553188   17.628617 O.3        1 MOL1        -0.5486
      84    H40     21.988003   22.591719   17.672218 H          1 MOL1         0.3769
      85    C25     24.910733   17.633435   22.091433 C.3        1 MOL1         0.2972
      86    H41     25.559743   16.794753   22.374788 H          1 MOL1         0.0751
      87    O21     23.714012   17.182756   21.426002 O.3        1 MOL1        -0.3740
      88    C26     24.514560   18.458830   23.342800 C.3        1 MOL1         0.1003
      89    H42     25.440857   18.858187   23.776045 H          1 MOL1         0.0783
      90    O22     23.842228   17.655773   24.326217 O.3        1 MOL1        -0.5519
      91    H43     23.923132   16.712941   24.042182 H          1 MOL1         0.3769
      92    C27     23.615904   19.648788   22.943338 C.3        1 MOL1         0.1053
      93    H44     22.667947   19.233757   22.583571 H          1 MOL1         0.0783
      94    O23     23.381480   20.463087   24.095854 O.3        1 MOL1        -0.5519
      95    H45     23.181271   19.819906   24.813112 H          1 MOL1         0.3769
      96    C28     24.239806   20.490254   21.801355 C.3        1 MOL1         0.1018
      97    H46     25.041921   21.111416   22.221492 H          1 MOL1         0.0783
      98    C29     24.802777   19.609795   20.648819 C.3        1 MOL1         0.1043
      99    H47     23.954764   19.197888   20.085494 H          1 MOL1         0.0783
     100    O24     25.600717   18.525380   21.189772 O.3        1 MOL1        -0.3740
     101    C30     25.684036   20.392167   19.649897 C.3        1 MOL1         0.0138
     102    H48     25.064906   21.138657   19.134995 H          1 MOL1         0.0794
     103    H49     26.056402   19.695764   18.886654 H          1 MOL1         0.0794
     104    O25     26.777451   21.031964   20.314107 O.3        1 MOL1        -0.5486
     105    H50     27.279022   20.319585   20.769520 H          1 MOL1         0.3769
     106    C31     21.475998   13.823367   20.697881 C.3        1 MOL1         0.2972
     107    H51     21.043990   12.855390   20.412547 H          1 MOL1         0.0751
     108    O26     20.451359   14.810712   20.945834 O.3        1 MOL1        -0.3740
     109    C32     22.390443   13.688060   21.943155 C.3        1 MOL1         0.1003
     110    H52     23.228183   13.039189   21.655984 H          1 MOL1         0.0783
     111    O27     21.708206   13.091401   23.055442 O.3        1 MOL1        -0.5519
     112    H53     20.983447   13.714271   23.316123 H          1 MOL1         0.3769
     113    C33     22.971839   15.067250   22.336472 C.3        1 MOL1         0.1053
     114    H54     22.143023   15.697075   22.689661 H          1 MOL1         0.0783
     115    O28     23.926285   14.886055   23.387899 O.3        1 MOL1        -0.5519
     116    H55     23.523898   14.214396   23.984492 H          1 MOL1         0.3769
     117    C34     23.635462   15.777357   21.123490 C.3        1 MOL1         0.1018
     118    H56     24.629542   15.346958   20.942451 H          1 MOL1         0.0783
     119    C35     22.805955   15.672850   19.814909 C.3        1 MOL1         0.1043
     120    H57     21.963153   16.371539   19.873922 H          1 MOL1         0.0783
     121    O29     22.316704   14.320507   19.636710 O.3        1 MOL1        -0.3740
     122    C36     23.646321   16.039100   18.574281 C.3        1 MOL1         0.0138
     123    H58     24.477273   15.327805   18.475873 H          1 MOL1         0.0794
     124    H59     24.076933   17.040110   18.711244 H          1 MOL1         0.0794
     125    O30     22.824850   16.013080   17.406307 O.3        1 MOL1        -0.5486
     126    H60     22.391911   15.129528   17.409002 H          1 MOL1         0.3769
     127    C1      18.824094   19.202397   24.539967 C.3        1 MOL1        -0.2427
     128    H1      18.049225   18.431646   24.448212 H          1 MOL1         0.0958
     129    H2      19.285500   19.098308   25.530193 H          1 MOL1         0.0958
     130    H3      18.335856   20.183301   24.499582 H          1 MOL1         0.0958
     131    C2      19.885570   19.057915   23.430122 C.3        1 MOL1        -0.1412
     132    H4      20.402701   18.094584   23.545688 H          1 MOL1         0.0947
     133    H5      20.642149   19.844268   23.552859 H          1 MOL1         0.0947
     134    C3      19.263736   19.152451   22.020302 C.3        1 MOL1        -0.1437
     135    H6      18.449687   18.424276   21.926976 H          1 MOL1         0.0947
     136    H7      18.816212   20.143217   21.882738 H          1 MOL1         0.0947
     137    C4      20.306464   18.912440   20.908884 C.3        1 MOL1        -0.1437
     138    H8      20.755907   17.917924   21.029245 H          1 MOL1         0.0947
     139    H9      21.115895   19.643736   21.013231 H          1 MOL1         0.0947
     140    C5      19.681572   19.042236   19.503637 C.3        1 MOL1        -0.1437
     141    H10     18.960390   18.229562   19.344804 H          1 MOL1         0.0947
     142    H11     19.121884   19.985338   19.438630 H          1 MOL1         0.0947
     143    C6      20.743914   19.008922   18.384998 C.3        1 MOL1        -0.1437
     144    H12     21.253727   18.038346   18.391439 H          1 MOL1         0.0947
     145    H13     21.507377   19.775170   18.579125 H          1 MOL1         0.0947
     146    C7      20.107176   19.264280   17.000050 C.3        1 MOL1        -0.1477
     147    H14     19.352219   18.497823   16.778816 H          1 MOL1         0.0947
     148    H15     19.577201   20.225968   17.020706 H          1 MOL1         0.0947
     149    C8      21.153191   19.312987   15.872063 C.3        1 MOL1         0.0145
     150    H16     21.965277   19.988517   16.153934 H          1 MOL1         0.0921
     151    H17     20.686986   19.700969   14.962561 H          1 MOL1         0.0921
     152    N1      21.749644   17.960790   15.535912 N.4        1 MOL1        -0.5969
     153    H18     22.193433   17.509031   16.352772 H          1 MOL1         0.3603
     154    H19     22.467079   18.027800   14.807199 H          1 MOL1         0.3603
     155    H20     21.037193   17.307112   15.197978 H          1 MOL1         0.3603
@<TRIPOS>BOND
    1     1     2    1
    2     1     3    1
    3     1     4    1
    4     4     5    1
    5     4     6    1
    6     6     7    1
    7     4     8    1
    8     8     9    1
    9     8    10    1
   10    10    11    1
   11     8    12    1
   12    12    13    1
   13    12    14    1
   14    14    15    1
   15     1    16    1
   16    14    16    1
   17    14    17    1
   18    17    18    1
   19    17    19    1
   20    17    20    1
   21    20    21    1
   22    22    23    1
   23    22    24    1
   24    22    25    1
   25    25    26    1
   26    25    27    1
   27    27    28    1
   28    25    29    1
   29    29    30    1
   30    29    31    1
   31    31    32    1
   32     3    33    1
   33    29    33    1
   34    33    34    1
   35    33    35    1
   36    35    36    1
   37    22    37    1
   38    35    37    1
   39    35    38    1
   40    38    39    1
   41    38    40    1
   42    38    41    1
   43    41    42    1
   44    43    44    1
   45    43    45    1
   46    43    46    1
   47    46    47    1
   48    46    48    1
   49    48    49    1
   50    46    50    1
   51    50    51    1
   52    50    52    1
   53    52    53    1
   54    24    54    1
   55    50    54    1
   56    54    55    1
   57    54    56    1
   58    56    57    1
   59    43    58    1
   60    56    58    1
   61    56    59    1
   62    59    60    1
   63    59    61    1
   64    59    62    1
   65    62    63    1
   66    64    65    1
   67    64    66    1
   68    64    67    1
   69    67    68    1
   70    67    69    1
   71    69    70    1
   72    67    71    1
   73    71    72    1
   74    71    73    1
   75    73    74    1
   76    45    75    1
   77    71    75    1
   78    75    76    1
   79    75    77    1
   80    77    78    1
   81    64    79    1
   82    77    79    1
   83    77    80    1
   84    80    81    1
   85    80    82    1
   86    80    83    1
   87    83    84    1
   88    85    86    1
   89    85    87    1
   90    85    88    1
   91    88    89    1
   92    88    90    1
   93    90    91    1
   94    88    92    1
   95    92    93    1
   96    92    94    1
   97    94    95    1
   98    66    96    1
   99    92    96    1
  100    96    97    1
  101    96    98    1
  102    98    99    1
  103    85   100    1
  104    98   100    1
  105    98   101    1
  106   101   102    1
  107   101   103    1
  108   101   104    1
  109   104   105    1
  110   106   107    1
  111    12   108    1
  112   106   108    1
  113   106   109    1
  114   109   110    1
  115   109   111    1
  116   111   112    1
  117   109   113    1
  118   113   114    1
  119   113   115    1
  120   115   116    1
  121    87   117    1
  122   113   117    1
  123   117   118    1
  124   117   119    1
  125   119   120    1
  126   106   121    1
  127   119   121    1
  128   119   122    1
  129   122   123    1
  130   122   124    1
  131   122   125    1
  132   125   126    1
  133   127   128    1
  134   127   129    1
  135   127   130    1
  136   127   131    1
  137   131   132    1
  138   131   133    1
  139   131   134    1
  140   134   135    1
  141   134   136    1
  142   134   137    1
  143   137   138    1
  144   137   139    1
  145   137   140    1
  146   140   141    1
  147   140   142    1
  148   140   143    1
  149   143   144    1
  150   143   145    1
  151   143   146    1
  152   146   147    1
  153   146   148    1
  154   146   149    1
  155   149   150    1
  156   149   151    1
  157   149   152    1
  158   152   153    1
  159   152   154    1
  160   152   155    1
@<TRIPOS>SUBSTRUCTURE
       1 MOL1            1 RESIDUE      1      MOL     
       2 MOL1          155 RESIDUE      1      MOL     
@<SCITEGIC>MOL_PROPERTY
VM2 Rank
SciTegic.value.IntegerValue
5

@<SCITEGIC>MOL_PROPERTY
Conf_Id
SciTegic.value.IntegerValue
22373

@<SCITEGIC>MOL_PROPERTY
Probability
SciTegic.value.DoubleValue
1.78

@<SCITEGIC>MOL_PROPERTY
Sum Probability
SciTegic.value.DoubleValue
15.28

@<SCITEGIC>MOL_PROPERTY
Delta G
SciTegic.value.DoubleValue
0.733

@<SCITEGIC>MOL_PROPERTY
G
SciTegic.value.DoubleValue
574.810

@<SCITEGIC>MOL_PROPERTY
E
SciTegic.value.DoubleValue
366.145

@<SCITEGIC>MOL_PROPERTY
-TS
SciTegic.value.DoubleValue
208.665

@<SCITEGIC>MOL_PROPERTY
U+W
SciTegic.value.DoubleValue
229.326

@<SCITEGIC>MOL_PROPERTY
U
SciTegic.value.DoubleValue
297.068

@<SCITEGIC>MOL_PROPERTY
W
SciTegic.value.DoubleValue
-67.742

@<SCITEGIC>MOL_PROPERTY
W(PB)
SciTegic.value.DoubleValue
-73.825

@<SCITEGIC>MOL_PROPERTY
W(SA)
SciTegic.value.DoubleValue
6.083

@<SCITEGIC>MOL_PROPERTY
Valence
SciTegic.value.DoubleValue
147.641

@<SCITEGIC>MOL_PROPERTY
Coulomb
SciTegic.value.DoubleValue
176.668

@<SCITEGIC>MOL_PROPERTY
VdW
SciTegic.value.DoubleValue
-27.242

@<SCITEGIC>MOL_PROPERTY
VdW6
SciTegic.value.DoubleValue
-182.204

@<SCITEGIC>MOL_PROPERTY
VdW12
SciTegic.value.DoubleValue
154.963

@<SCITEGIC>MOL_PROPERTY
Bond
SciTegic.value.DoubleValue
4.307

@<SCITEGIC>MOL_PROPERTY
Angle
SciTegic.value.DoubleValue
9.576

@<SCITEGIC>MOL_PROPERTY
Pdih
SciTegic.value.DoubleValue
133.758

@<SCITEGIC>MOL_PROPERTY
Idih
SciTegic.value.DoubleValue
0.000

@<SCITEGIC>MOL_PROPERTY
Tether
SciTegic.value.DoubleValue
0.000

@<TRIPOS>MOLECULE
CD_guest-3_vm2_single.mol2 : vm2 host+ligand conformer 6
         155         160           2
SMALL
USER_CHARGES
 
@<TRIPOS>ATOM
       1    C1      16.110035   14.952611   21.564975 C.3        1 MOL1         0.2972
       2    H1      15.026105   14.787977   21.613949 H          1 MOL1         0.0751
       3    O1      16.440132   16.345973   21.399178 O.3        1 MOL1        -0.3740
       4    C2      16.788591   14.452414   22.862721 C.3        1 MOL1         0.1003
       5    H2      16.627057   13.368504   22.927403 H          1 MOL1         0.0783
       6    O2      16.221377   15.085596   24.020582 O.3        1 MOL1        -0.5519
       7    H3      15.823434   15.941499   23.722873 H          1 MOL1         0.3769
       8    C3      18.311005   14.708564   22.800465 C.3        1 MOL1         0.1053
       9    H4      18.462953   15.792850   22.810069 H          1 MOL1         0.0783
      10    O3      18.939429   14.125718   23.945416 O.3        1 MOL1        -0.5519
      11    H5      18.358379   14.368206   24.700996 H          1 MOL1         0.3769
      12    C4      18.938322   14.144350   21.500720 C.3        1 MOL1         0.1018
      13    H6      19.047799   13.057531   21.613831 H          1 MOL1         0.0783
      14    C5      18.103270   14.468011   20.227820 C.3        1 MOL1         0.1043
      15    H7      18.252699   15.527692   19.980880 H          1 MOL1         0.0783
      16    O4      16.693539   14.220571   20.466718 O.3        1 MOL1        -0.3740
      17    C6      18.524235   13.641808   18.992467 C.3        1 MOL1         0.0138
      18    H8      19.558388   13.896380   18.725805 H          1 MOL1         0.0794
      19    H9      17.888952   13.927191   18.143236 H          1 MOL1         0.0794
      20    O5      18.411776   12.238836   19.247840 O.3        1 MOL1        -0.5486
      21    H10     17.477043   12.080362   19.507916 H          1 MOL1         0.3769
      22    C7      14.905242   20.121717   20.680111 C.3        1 MOL1         0.2972
      23    H11     14.289289   20.984189   20.394592 H          1 MOL1         0.0751
      24    O6      16.271383   20.515442   20.933182 O.3        1 MOL1        -0.3740
      25    C8      14.310664   19.399501   21.922478 C.3        1 MOL1         0.1003
      26    H12     13.307074   19.054763   21.641308 H          1 MOL1         0.0783
      27    O7      14.196323   20.271054   23.056983 O.3        1 MOL1        -0.5519
      28    H13     15.117622   20.530582   23.312403 H          1 MOL1         0.3769
      29    C9      15.153295   18.154628   22.287015 C.3        1 MOL1         0.1053
      30    H14     16.138684   18.501117   22.627268 H          1 MOL1         0.0783
      31    O8      14.508357   17.427841   23.336908 O.3        1 MOL1        -0.5519
      32    H15     14.205233   18.112156   23.974981 H          1 MOL1         0.3769
      33    C10     15.361374   17.233543   21.058940 C.3        1 MOL1         0.1018
      34    H16     14.430465   16.694916   20.837096 H          1 MOL1         0.0783
      35    C11     15.806236   18.021876   19.801450 C.3        1 MOL1         0.1043
      36    H17     16.837197   18.355262   19.956199 H          1 MOL1         0.0783
      37    O9      14.928991   19.158974   19.604915 O.3        1 MOL1        -0.3740
      38    C12     15.764501   17.168871   18.517324 C.3        1 MOL1         0.0138
      39    H18     16.305306   16.229090   18.684874 H          1 MOL1         0.0794
      40    H19     14.722029   16.916870   18.281214 H          1 MOL1         0.0794
      41    O10     16.367355   17.887895   17.439600 O.3        1 MOL1        -0.5486
      42    H20     15.906467   18.754467   17.398583 H          1 MOL1         0.3769
      43    C13     18.587354   23.846425   21.892205 C.3        1 MOL1         0.2972
      44    H21     18.937356   24.833050   22.221852 H          1 MOL1         0.0751
      45    O11     19.631699   23.110899   21.224319 O.3        1 MOL1        -0.3740
      46    C14     18.070094   23.024126   23.103754 C.3        1 MOL1         0.1003
      47    H22     17.252821   23.599891   23.557322 H          1 MOL1         0.0783
      48    O12     19.094609   22.808620   24.087608 O.3        1 MOL1        -0.5519
      49    H23     19.786877   23.497883   23.945485 H          1 MOL1         0.3769
      50    C15     17.502494   21.662587   22.646314 C.3        1 MOL1         0.1053
      51    H24     18.339241   21.066635   22.264687 H          1 MOL1         0.0783
      52    O13     16.906369   21.007834   23.770156 O.3        1 MOL1        -0.5519
      53    H25     17.570617   21.107409   24.488709 H          1 MOL1         0.3769
      54    C16     16.470989   21.824945   21.504523 C.3        1 MOL1         0.1018
      55    H26     15.543431   22.236017   21.924076 H          1 MOL1         0.0783
      56    C17     16.993953   22.760108   20.378975 C.3        1 MOL1         0.1043
      57    H27     17.804674   22.243697   19.847511 H          1 MOL1         0.0783
      58    O14     17.493678   23.991830   20.959852 O.3        1 MOL1        -0.3740
      59    C18     15.916014   23.133832   19.337139 C.3        1 MOL1         0.0138
      60    H28     15.609053   22.227037   18.799321 H          1 MOL1         0.0794
      61    H29     16.359387   23.815769   18.599227 H          1 MOL1         0.0794
      62    O15     14.782402   23.744895   19.960025 O.3        1 MOL1        -0.5486
      63    H30     15.122737   24.532043   20.440649 H          1 MOL1         0.3769
      64    C19     23.710914   22.986364   20.875915 C.3        1 MOL1         0.2972
      65    H31     24.785558   23.106435   20.687059 H          1 MOL1         0.0751
      66    O16     23.361888   21.606785   21.120732 O.3        1 MOL1        -0.3740
      67    C20     23.239314   23.869370   22.059139 C.3        1 MOL1         0.1003
      68    H32     23.373468   24.914698   21.751428 H          1 MOL1         0.0783
      69    O17     24.008660   23.640499   23.248091 O.3        1 MOL1        -0.5519
      70    H33     23.836799   22.705873   23.526935 H          1 MOL1         0.3769
      71    C21     21.731545   23.644290   22.327899 C.3        1 MOL1         0.1053
      72    H34     21.602971   22.617016   22.697165 H          1 MOL1         0.0783
      73    O18     21.297941   24.575974   23.325304 O.3        1 MOL1        -0.5519
      74    H35     22.035302   24.612968   23.976523 H          1 MOL1         0.3769
      75    C22     20.884043   23.800360   21.031383 C.3        1 MOL1         0.1018
      76    H36     20.725673   24.866719   20.821889 H          1 MOL1         0.0783
      77    C23     21.533009   23.142154   19.782103 C.3        1 MOL1         0.1043
      78    H37     21.374666   22.059453   19.841396 H          1 MOL1         0.0783
      79    O19     22.952983   23.429602   19.732265 O.3        1 MOL1        -0.3740
      80    C24     20.901484   23.650718   18.469127 C.3        1 MOL1         0.0138
      81    H38     21.089944   24.728040   18.369720 H          1 MOL1         0.0794
      82    H39     19.813804   23.503779   18.511398 H          1 MOL1         0.0794
      83    O20     21.447106   22.942158   17.354249 O.3        1 MOL1        -0.5486
      84    H40     22.423514   23.012306   17.440648 H          1 MOL1         0.3769
      85    C25     24.740534   17.877697   22.200603 C.3        1 MOL1         0.2972
      86    H41     25.316449   17.007957   22.541261 H          1 MOL1         0.0751
      87    O21     23.509239   17.482848   21.559702 O.3        1 MOL1        -0.3740
      88    C26     24.406788   18.800678   23.398893 C.3        1 MOL1         0.1003
      89    H42     25.361315   19.127614   23.831511 H          1 MOL1         0.0783
      90    O22     23.646876   18.107805   24.402567 O.3        1 MOL1        -0.5519
      91    H43     23.745881   17.141067   24.225472 H          1 MOL1         0.3769
      92    C27     23.635956   20.053975   22.926341 C.3        1 MOL1         0.1053
      93    H44     22.653231   19.729791   22.567477 H          1 MOL1         0.0783
      94    O23     23.471182   20.938333   24.037388 O.3        1 MOL1        -0.5519
      95    H45     23.179823   20.354666   24.774150 H          1 MOL1         0.3769
      96    C28     24.349543   20.770184   21.751461 C.3        1 MOL1         0.1018
      97    H46     25.195677   21.349981   22.143611 H          1 MOL1         0.0783
      98    C29     24.837201   19.777977   20.657968 C.3        1 MOL1         0.1043
      99    H47     23.958844   19.420858   20.104366 H          1 MOL1         0.0783
     100    O24     25.517500   18.649472   21.260500 O.3        1 MOL1        -0.3740
     101    C30     25.800100   20.422835   19.636618 C.3        1 MOL1         0.0138
     102    H48     25.265945   21.211749   19.090475 H          1 MOL1         0.0794
     103    H49     26.098834   19.662133   18.902981 H          1 MOL1         0.0794
     104    O25     26.952920   20.967032   20.285520 O.3        1 MOL1        -0.5486
     105    H50     27.368505   20.224265   20.777671 H          1 MOL1         0.3769
     106    C31     21.326666   13.964720   20.996691 C.3        1 MOL1         0.2972
     107    H51     21.006836   12.950048   20.726168 H          1 MOL1         0.0751
     108    O26     20.209395   14.803539   21.346586 O.3        1 MOL1        -0.3740
     109    C32     22.302305   13.937192   22.200278 C.3        1 MOL1         0.1003
     110    H52     23.176040   13.346201   21.896182 H          1 MOL1         0.0783
     111    O27     21.701325   13.320374   23.349664 O.3        1 MOL1        -0.5519
     112    H53     20.808127   13.730388   23.477034 H          1 MOL1         0.3769
     113    C33     22.792688   15.366108   22.543571 C.3        1 MOL1         0.1053
     114    H54     21.933202   15.947600   22.905647 H          1 MOL1         0.0783
     115    O28     23.783833   15.272809   23.572692 O.3        1 MOL1        -0.5519
     116    H55     23.440912   14.586326   24.189591 H          1 MOL1         0.3769
     117    C34     23.361957   16.075680   21.282061 C.3        1 MOL1         0.1018
     118    H56     24.324439   15.624099   21.006588 H          1 MOL1         0.0783
     119    C35     22.399214   15.961991   20.070627 C.3        1 MOL1         0.1043
     120    H57     21.512433   16.579898   20.258717 H          1 MOL1         0.0783
     121    O29     22.019139   14.576246   19.888464 O.3        1 MOL1        -0.3740
     122    C36     23.058638   16.437589   18.759396 C.3        1 MOL1         0.0138
     123    H58     23.914874   15.790007   18.528276 H          1 MOL1         0.0794
     124    H59     23.439127   17.458242   18.893243 H          1 MOL1         0.0794
     125    O30     22.107028   16.408746   17.694520 O.3        1 MOL1        -0.5486
     126    H60     21.733043   15.501164   17.690270 H          1 MOL1         0.3769
     127    C1      19.165784   18.207927   24.475856 C.3        1 MOL1        -0.2427
     128    H1      18.113011   18.502692   24.378217 H          1 MOL1         0.0958
     129    H2      19.220806   17.113218   24.455058 H          1 MOL1         0.0958
     130    H3      19.519366   18.538210   25.460895 H          1 MOL1         0.0958
     131    C2      20.028311   18.829019   23.357814 C.3        1 MOL1        -0.1412
     132    H4      21.056397   18.457233   23.454630 H          1 MOL1         0.0947
     133    H5      20.068121   19.918958   23.495005 H          1 MOL1         0.0947
     134    C3      19.485775   18.496610   21.950422 C.3        1 MOL1        -0.1437
     135    H6      19.538083   17.414229   21.784620 H          1 MOL1         0.0947
     136    H7      18.425489   18.774830   21.889209 H          1 MOL1         0.0947
     137    C4      20.274124   19.216907   20.834579 C.3        1 MOL1        -0.1437
     138    H8      21.323190   18.896954   20.862348 H          1 MOL1         0.0947
     139    H9      20.268462   20.300554   21.013322 H          1 MOL1         0.0947
     140    C5      19.678342   18.917679   19.441954 C.3        1 MOL1        -0.1437
     141    H10     19.593264   17.831272   19.299866 H          1 MOL1         0.0947
     142    H11     18.664448   19.332528   19.384381 H          1 MOL1         0.0947
     143    C6      20.524883   19.517649   18.302033 C.3        1 MOL1        -0.1437
     144    H12     21.559465   19.155670   18.374562 H          1 MOL1         0.0947
     145    H13     20.556291   20.607701   18.406437 H          1 MOL1         0.0947
     146    C7      19.949658   19.161108   16.916141 C.3        1 MOL1        -0.1477
     147    H14     19.933354   18.069792   16.793011 H          1 MOL1         0.0947
     148    H15     18.910648   19.509559   16.844540 H          1 MOL1         0.0947
     149    C8      20.785443   19.794450   15.791663 C.3        1 MOL1         0.0145
     150    H16     21.815537   19.433031   15.853121 H          1 MOL1         0.0921
     151    H17     20.793897   20.882275   15.907820 H          1 MOL1         0.0921
     152    N1      20.257012   19.471684   14.409416 N.4        1 MOL1        -0.5969
     153    H18     20.253320   18.461782   14.232902 H          1 MOL1         0.3603
     154    H19     20.825906   19.904892   13.674219 H          1 MOL1         0.3603
     155    H20     19.295979   19.805395   14.283547 H          1 MOL1         0.3603
@<TRIPOS>BOND
    1     1     2    1
    2     1     3    1
    3     1     4    1
    4     4     5    1
    5     4     6    1
    6     6     7    1
    7     4     8    1
    8     8     9    1
    9     8    10    1
   10    10    11    1
   11     8    12    1
   12    12    13    1
   13    12    14    1
   14    14    15    1
   15     1    16    1
   16    14    16    1
   17    14    17    1
   18    17    18    1
   19    17    19    1
   20    17    20    1
   21    20    21    1
   22    22    23    1
   23    22    24    1
   24    22    25    1
   25    25    26    1
   26    25    27    1
   27    27    28    1
   28    25    29    1
   29    29    30    1
   30    29    31    1
   31    31    32    1
   32     3    33    1
   33    29    33    1
   34    33    34    1
   35    33    35    1
   36    35    36    1
   37    22    37    1
   38    35    37    1
   39    35    38    1
   40    38    39    1
   41    38    40    1
   42    38    41    1
   43    41    42    1
   44    43    44    1
   45    43    45    1
   46    43    46    1
   47    46    47    1
   48    46    48    1
   49    48    49    1
   50    46    50    1
   51    50    51    1
   52    50    52    1
   53    52    53    1
   54    24    54    1
   55    50    54    1
   56    54    55    1
   57    54    56    1
   58    56    57    1
   59    43    58    1
   60    56    58    1
   61    56    59    1
   62    59    60    1
   63    59    61    1
   64    59    62    1
   65    62    63    1
   66    64    65    1
   67    64    66    1
   68    64    67    1
   69    67    68    1
   70    67    69    1
   71    69    70    1
   72    67    71    1
   73    71    72    1
   74    71    73    1
   75    73    74    1
   76    45    75    1
   77    71    75    1
   78    75    76    1
   79    75    77    1
   80    77    78    1
   81    64    79    1
   82    77    79    1
   83    77    80    1
   84    80    81    1
   85    80    82    1
   86    80    83    1
   87    83    84    1
   88    85    86    1
   89    85    87    1
   90    85    88    1
   91    88    89    1
   92    88    90    1
   93    90    91    1
   94    88    92    1
   95    92    93    1
   96    92    94    1
   97    94    95    1
   98    66    96    1
   99    92    96    1
  100    96    97    1
  101    96    98    1
  102    98    99    1
  103    85   100    1
  104    98   100    1
  105    98   101    1
  106   101   102    1
  107   101   103    1
  108   101   104    1
  109   104   105    1
  110   106   107    1
  111    12   108    1
  112   106   108    1
  113   106   109    1
  114   109   110    1
  115   109   111    1
  116   111   112    1
  117   109   113    1
  118   113   114    1
  119   113   115    1
  120   115   116    1
  121    87   117    1
  122   113   117    1
  123   117   118    1
  124   117   119    1
  125   119   120    1
  126   106   121    1
  127   119   121    1
  128   119   122    1
  129   122   123    1
  130   122   124    1
  131   122   125    1
  132   125   126    1
  133   127   128    1
  134   127   129    1
  135   127   130    1
  136   127   131    1
  137   131   132    1
  138   131   133    1
  139   131   134    1
  140   134   135    1
  141   134   136    1
  142   134   137    1
  143   137   138    1
  144   137   139    1
  145   137   140    1
  146   140   141    1
  147   140   142    1
  148   140   143    1
  149   143   144    1
  150   143   145    1
  151   143   146    1
  152   146   147    1
  153   146   148    1
  154   146   149    1
  155   149   150    1
  156   149   151    1
  157   149   152    1
  158   152   153    1
  159   152   154    1
  160   152   155    1
@<TRIPOS>SUBSTRUCTURE
       1 MOL1            1 RESIDUE      1      MOL     
       2 MOL1          155 RESIDUE      1      MOL     
@<SCITEGIC>MOL_PROPERTY
VM2 Rank
SciTegic.value.IntegerValue
6

@<SCITEGIC>MOL_PROPERTY
Conf_Id
SciTegic.value.IntegerValue
27126

@<SCITEGIC>MOL_PROPERTY
Probability
SciTegic.value.DoubleValue
1.72

@<SCITEGIC>MOL_PROPERTY
Sum Probability
SciTegic.value.DoubleValue
17.00

@<SCITEGIC>MOL_PROPERTY
Delta G
SciTegic.value.DoubleValue
0.754

@<SCITEGIC>MOL_PROPERTY
G
SciTegic.value.DoubleValue
574.831

@<SCITEGIC>MOL_PROPERTY
E
SciTegic.value.DoubleValue
367.072

@<SCITEGIC>MOL_PROPERTY
-TS
SciTegic.value.DoubleValue
207.758

@<SCITEGIC>MOL_PROPERTY
U+W
SciTegic.value.DoubleValue
230.253

@<SCITEGIC>MOL_PROPERTY
U
SciTegic.value.DoubleValue
301.668

@<SCITEGIC>MOL_PROPERTY
W
SciTegic.value.DoubleValue
-71.415

@<SCITEGIC>MOL_PROPERTY
W(PB)
SciTegic.value.DoubleValue
-77.624

@<SCITEGIC>MOL_PROPERTY
W(SA)
SciTegic.value.DoubleValue
6.209

@<SCITEGIC>MOL_PROPERTY
Valence
SciTegic.value.DoubleValue
147.089

@<SCITEGIC>MOL_PROPERTY
Coulomb
SciTegic.value.DoubleValue
182.622

@<SCITEGIC>MOL_PROPERTY
VdW
SciTegic.value.DoubleValue
-28.043

@<SCITEGIC>MOL_PROPERTY
VdW6
SciTegic.value.DoubleValue
-181.204

@<SCITEGIC>MOL_PROPERTY
VdW12
SciTegic.value.DoubleValue
153.161

@<SCITEGIC>MOL_PROPERTY
Bond
SciTegic.value.DoubleValue
4.335

@<SCITEGIC>MOL_PROPERTY
Angle
SciTegic.value.DoubleValue
9.922

@<SCITEGIC>MOL_PROPERTY
Pdih
SciTegic.value.DoubleValue
132.832

@<SCITEGIC>MOL_PROPERTY
Idih
SciTegic.value.DoubleValue
0.000

@<SCITEGIC>MOL_PROPERTY
Tether
SciTegic.value.DoubleValue
0.000

@<TRIPOS>MOLECULE
CD_guest-3_vm2_single.mol2 : vm2 host+ligand conformer 7
         155         160           2
SMALL
USER_CHARGES
 
@<TRIPOS>ATOM
       1    C1      16.345179   15.176323   21.733522 C.3        1 MOL1         0.2972
       2    H1      15.267554   15.072694   21.914748 H          1 MOL1         0.0751
       3    O1      16.688330   16.510902   21.307828 O.3        1 MOL1        -0.3740
       4    C2      17.140853   14.837054   23.018951 C.3        1 MOL1         0.1003
       5    H2      16.925351   13.789192   23.265399 H          1 MOL1         0.0783
       6    O2      16.743152   15.668012   24.120689 O.3        1 MOL1        -0.5519
       7    H3      15.962790   16.195490   23.821409 H          1 MOL1         0.3769
       8    C3      18.661699   14.968622   22.772894 C.3        1 MOL1         0.1053
       9    H4      18.888608   16.028151   22.612436 H          1 MOL1         0.0783
      10    O3      19.363116   14.504883   23.929412 O.3        1 MOL1        -0.5519
      11    H5      18.889931   14.918605   24.686345 H          1 MOL1         0.3769
      12    C4      19.114098   14.182667   21.515356 C.3        1 MOL1         0.1018
      13    H6      19.183944   13.117525   21.773628 H          1 MOL1         0.0783
      14    C5      18.162202   14.377960   20.300217 C.3        1 MOL1         0.1043
      15    H7      18.336006   15.381880   19.891210 H          1 MOL1         0.0783
      16    O4      16.776307   14.255794   20.709348 O.3        1 MOL1        -0.3740
      17    C6      18.410261   13.364872   19.160685 C.3        1 MOL1         0.0138
      18    H8      19.419470   13.520403   18.756720 H          1 MOL1         0.0794
      19    H9      17.699110   13.565577   18.348210 H          1 MOL1         0.0794
      20    O5      18.267092   12.019493   19.625161 O.3        1 MOL1        -0.5486
      21    H10     17.358950   11.950940   19.995548 H          1 MOL1         0.3769
      22    C7      14.894225   20.236767   20.791066 C.3        1 MOL1         0.2972
      23    H11     14.224189   21.059831   20.510350 H          1 MOL1         0.0751
      24    O6      16.162467   20.720559   21.272192 O.3        1 MOL1        -0.3740
      25    C8      14.261896   19.361780   21.903613 C.3        1 MOL1         0.1003
      26    H12     13.316126   18.967594   21.509633 H          1 MOL1         0.0783
      27    O7      13.991927   20.135820   23.083427 O.3        1 MOL1        -0.5519
      28    H13     14.811881   20.649247   23.298058 H          1 MOL1         0.3769
      29    C9      15.173522   18.156990   22.247155 C.3        1 MOL1         0.1053
      30    H14     16.085423   18.544903   22.721744 H          1 MOL1         0.0783
      31    O8      14.481655   17.296564   23.157988 O.3        1 MOL1        -0.5519
      32    H15     14.040763   17.904404   23.794429 H          1 MOL1         0.3769
      33    C10     15.589674   17.378815   20.968769 C.3        1 MOL1         0.1018
      34    H16     14.733407   16.811308   20.580264 H          1 MOL1         0.0783
      35    C11     16.103634   18.327024   19.854785 C.3        1 MOL1         0.1043
      36    H17     17.070620   18.742108   20.161129 H          1 MOL1         0.0783
      37    O9      15.141738   19.389218   19.649792 O.3        1 MOL1        -0.3740
      38    C12     16.294084   17.601504   18.506741 C.3        1 MOL1         0.0138
      39    H18     16.908731   16.705411   18.659293 H          1 MOL1         0.0794
      40    H19     15.316467   17.274636   18.128031 H          1 MOL1         0.0794
      41    O10     16.932443   18.471982   17.570547 O.3        1 MOL1        -0.5486
      42    H20     16.378576   19.281261   17.528331 H          1 MOL1         0.3769
      43    C13     18.372561   24.162253   21.776868 C.3        1 MOL1         0.2972
      44    H21     18.761116   25.180258   21.908216 H          1 MOL1         0.0751
      45    O11     19.429753   23.204929   21.564360 O.3        1 MOL1        -0.3740
      46    C14     17.570097   23.732389   23.029480 C.3        1 MOL1         0.1003
      47    H22     16.713596   24.412537   23.124063 H          1 MOL1         0.0783
      48    O12     18.375987   23.820217   24.215224 O.3        1 MOL1        -0.5519
      49    H23     19.322664   23.818647   23.927110 H          1 MOL1         0.3769
      50    C15     17.024747   22.297283   22.853766 C.3        1 MOL1         0.1053
      51    H24     17.884812   21.618122   22.846995 H          1 MOL1         0.0783
      52    O13     16.165334   21.973964   23.951184 O.3        1 MOL1        -0.5519
      53    H25     16.647021   22.289642   24.748232 H          1 MOL1         0.3769
      54    C16     16.255806   22.136261   21.517756 C.3        1 MOL1         0.1018
      55    H26     15.266020   22.597611   21.634080 H          1 MOL1         0.0783
      56    C17     16.999925   22.769143   20.305922 C.3        1 MOL1         0.1043
      57    H27     17.851806   22.124468   20.050777 H          1 MOL1         0.0783
      58    O14     17.478475   24.095736   20.646333 O.3        1 MOL1        -0.3740
      59    C18     16.122027   22.898544   19.041350 C.3        1 MOL1         0.0138
      60    H28     15.846410   21.895487   18.690729 H          1 MOL1         0.0794
      61    H29     16.715621   23.369001   18.246098 H          1 MOL1         0.0794
      62    O15     14.946290   23.669306   19.305460 O.3        1 MOL1        -0.5486
      63    H30     15.256982   24.541521   19.635774 H          1 MOL1         0.3769
      64    C19     23.494091   22.777564   20.955868 C.3        1 MOL1         0.2972
      65    H31     24.555868   22.895146   20.703552 H          1 MOL1         0.0751
      66    O16     23.161408   21.395318   21.204646 O.3        1 MOL1        -0.3740
      67    C20     23.111955   23.640780   22.188368 C.3        1 MOL1         0.1003
      68    H32     23.282752   24.689406   21.912071 H          1 MOL1         0.0783
      69    O17     23.913642   23.331087   23.337770 O.3        1 MOL1        -0.5519
      70    H33     23.722311   22.389493   23.578312 H          1 MOL1         0.3769
      71    C21     21.608949   23.473950   22.513324 C.3        1 MOL1         0.1053
      72    H34     21.442397   22.435927   22.833965 H          1 MOL1         0.0783
      73    O18     21.243048   24.369981   23.567108 O.3        1 MOL1        -0.5519
      74    H35     21.975825   24.310992   24.220605 H          1 MOL1         0.3769
      75    C22     20.730910   23.741835   21.264495 C.3        1 MOL1         0.1018
      76    H36     20.697778   24.821426   21.065911 H          1 MOL1         0.0783
      77    C23     21.247947   23.015757   19.992930 C.3        1 MOL1         0.1043
      78    H37     21.032057   21.946310   20.087741 H          1 MOL1         0.0783
      79    O19     22.675576   23.235518   19.859317 O.3        1 MOL1        -0.3740
      80    C24     20.560103   23.533531   18.709503 C.3        1 MOL1         0.0138
      81    H38     20.956780   24.528055   18.465517 H          1 MOL1         0.0794
      82    H39     19.484585   23.643354   18.898083 H          1 MOL1         0.0794
      83    O20     20.762705   22.627088   17.620290 O.3        1 MOL1        -0.5486
      84    H40     20.368025   23.030105   16.818416 H          1 MOL1         0.3769
      85    C25     24.817619   17.693401   22.067642 C.3        1 MOL1         0.2972
      86    H41     25.467491   16.857901   22.358124 H          1 MOL1         0.0751
      87    O21     23.611591   17.229892   21.427646 O.3        1 MOL1        -0.3740
      88    C26     24.443150   18.540692   23.312284 C.3        1 MOL1         0.1003
      89    H42     25.381111   18.917156   23.740877 H          1 MOL1         0.0783
      90    O22     23.752446   17.760237   24.301363 O.3        1 MOL1        -0.5519
      91    H43     23.888744   16.809117   24.071797 H          1 MOL1         0.3769
      92    C27     23.574321   19.753746   22.912957 C.3        1 MOL1         0.1053
      93    H44     22.608027   19.365138   22.576805 H          1 MOL1         0.0783
      94    O23     23.381686   20.586409   24.059781 O.3        1 MOL1        -0.5519
      95    H45     23.161943   19.958258   24.784503 H          1 MOL1         0.3769
      96    C28     24.204724   20.563332   21.750921 C.3        1 MOL1         0.1018
      97    H46     25.038427   21.157572   22.147947 H          1 MOL1         0.0783
      98    C29     24.709840   19.649805   20.598850 C.3        1 MOL1         0.1043
      99    H47     23.835734   19.245214   20.071870 H          1 MOL1         0.0783
     100    O24     25.501463   18.561009   21.138016 O.3        1 MOL1        -0.3740
     101    C30     25.574798   20.394062   19.557471 C.3        1 MOL1         0.0138
     102    H48     24.956042   21.146862   19.050913 H          1 MOL1         0.0794
     103    H49     25.904649   19.676465   18.794333 H          1 MOL1         0.0794
     104    O25     26.704726   21.018023   20.174066 O.3        1 MOL1        -0.5486
     105    H50     27.202730   20.301542   20.626939 H          1 MOL1         0.3769
     106    C31     21.435928   13.785871   20.823576 C.3        1 MOL1         0.2972
     107    H51     21.033093   12.798684   20.562215 H          1 MOL1         0.0751
     108    O26     20.387979   14.729636   21.125469 O.3        1 MOL1        -0.3740
     109    C32     22.400182   13.699459   22.033158 C.3        1 MOL1         0.1003
     110    H52     23.250508   13.077461   21.724382 H          1 MOL1         0.0783
     111    O27     21.774919   13.093376   23.174053 O.3        1 MOL1        -0.5519
     112    H53     20.974689   13.634476   23.394511 H          1 MOL1         0.3769
     113    C33     22.943654   15.104579   22.389453 C.3        1 MOL1         0.1053
     114    H54     22.105227   15.709893   22.762270 H          1 MOL1         0.0783
     115    O28     23.936701   14.969945   23.412060 O.3        1 MOL1        -0.5519
     116    H55     23.577613   14.289106   24.025819 H          1 MOL1         0.3769
     117    C34     23.540149   15.818564   21.143180 C.3        1 MOL1         0.1018
     118    H56     24.532826   15.403508   20.922787 H          1 MOL1         0.0783
     119    C35     22.656721   15.680859   19.872306 C.3        1 MOL1         0.1043
     120    H57     21.794536   16.353856   19.962788 H          1 MOL1         0.0783
     121    O29     22.205063   14.312363   19.723225 O.3        1 MOL1        -0.3740
     122    C36     23.437227   16.055180   18.594176 C.3        1 MOL1         0.0138
     123    H58     24.245452   15.328389   18.437357 H          1 MOL1         0.0794
     124    H59     23.899178   17.042440   18.727839 H          1 MOL1         0.0794
     125    O30     22.558221   16.077521   17.467885 O.3        1 MOL1        -0.5486
     126    H60     22.098279   15.209764   17.463148 H          1 MOL1         0.3769
     127    C1      18.624880   18.924147   24.511367 C.3        1 MOL1        -0.2427
     128    H1      18.114827   17.958960   24.406509 H          1 MOL1         0.0958
     129    H2      19.011512   18.990223   25.536252 H          1 MOL1         0.0958
     130    H3      17.880018   19.718588   24.379473 H          1 MOL1         0.0958
     131    C2      19.771202   19.055950   23.488053 C.3        1 MOL1        -0.1412
     132    H4      20.505255   18.255358   23.659020 H          1 MOL1         0.0947
     133    H5      20.296167   20.008490   23.647528 H          1 MOL1         0.0947
     134    C3      19.249319   18.985871   22.037388 C.3        1 MOL1        -0.1437
     135    H6      18.698091   18.052782   21.884939 H          1 MOL1         0.0947
     136    H7      18.539499   19.800014   21.860207 H          1 MOL1         0.0947
     137    C4      20.392669   19.079218   21.011560 C.3        1 MOL1        -0.1437
     138    H8      21.099078   18.255456   21.176050 H          1 MOL1         0.0947
     139    H9      20.941289   20.013390   21.174598 H          1 MOL1         0.0947
     140    C5      19.877338   19.035054   19.559398 C.3        1 MOL1        -0.1437
     141    H10     19.356904   18.083427   19.383039 H          1 MOL1         0.0947
     142    H11     19.143779   19.837405   19.399150 H          1 MOL1         0.0947
     143    C6      21.031222   19.188948   18.547558 C.3        1 MOL1        -0.1437
     144    H12     21.785370   18.414493   18.729161 H          1 MOL1         0.0947
     145    H13     21.531143   20.155922   18.695252 H          1 MOL1         0.0947
     146    C7      20.529896   19.085066   17.093413 C.3        1 MOL1        -0.1477
     147    H14     20.027687   18.119715   16.943755 H          1 MOL1         0.0947
     148    H15     19.786091   19.870303   16.902688 H          1 MOL1         0.0947
     149    C8      21.693128   19.220109   16.097835 C.3        1 MOL1         0.0145
     150    H16     22.426379   18.429677   16.283461 H          1 MOL1         0.0921
     151    H17     22.182253   20.188513   16.235421 H          1 MOL1         0.0921
     152    N1      21.249303   19.117984   14.653617 N.4        1 MOL1        -0.5969
     153    H18     20.805809   18.214344   14.459553 H          1 MOL1         0.3603
     154    H19     22.038395   19.212355   14.005555 H          1 MOL1         0.3603
     155    H20     20.571017   19.848145   14.413834 H          1 MOL1         0.3603
@<TRIPOS>BOND
    1     1     2    1
    2     1     3    1
    3     1     4    1
    4     4     5    1
    5     4     6    1
    6     6     7    1
    7     4     8    1
    8     8     9    1
    9     8    10    1
   10    10    11    1
   11     8    12    1
   12    12    13    1
   13    12    14    1
   14    14    15    1
   15     1    16    1
   16    14    16    1
   17    14    17    1
   18    17    18    1
   19    17    19    1
   20    17    20    1
   21    20    21    1
   22    22    23    1
   23    22    24    1
   24    22    25    1
   25    25    26    1
   26    25    27    1
   27    27    28    1
   28    25    29    1
   29    29    30    1
   30    29    31    1
   31    31    32    1
   32     3    33    1
   33    29    33    1
   34    33    34    1
   35    33    35    1
   36    35    36    1
   37    22    37    1
   38    35    37    1
   39    35    38    1
   40    38    39    1
   41    38    40    1
   42    38    41    1
   43    41    42    1
   44    43    44    1
   45    43    45    1
   46    43    46    1
   47    46    47    1
   48    46    48    1
   49    48    49    1
   50    46    50    1
   51    50    51    1
   52    50    52    1
   53    52    53    1
   54    24    54    1
   55    50    54    1
   56    54    55    1
   57    54    56    1
   58    56    57    1
   59    43    58    1
   60    56    58    1
   61    56    59    1
   62    59    60    1
   63    59    61    1
   64    59    62    1
   65    62    63    1
   66    64    65    1
   67    64    66    1
   68    64    67    1
   69    67    68    1
   70    67    69    1
   71    69    70    1
   72    67    71    1
   73    71    72    1
   74    71    73    1
   75    73    74    1
   76    45    75    1
   77    71    75    1
   78    75    76    1
   79    75    77    1
   80    77    78    1
   81    64    79    1
   82    77    79    1
   83    77    80    1
   84    80    81    1
   85    80    82    1
   86    80    83    1
   87    83    84    1
   88    85    86    1
   89    85    87    1
   90    85    88    1
   91    88    89    1
   92    88    90    1
   93    90    91    1
   94    88    92    1
   95    92    93    1
   96    92    94    1
   97    94    95    1
   98    66    96    1
   99    92    96    1
  100    96    97    1
  101    96    98    1
  102    98    99    1
  103    85   100    1
  104    98   100    1
  105    98   101    1
  106   101   102    1
  107   101   103    1
  108   101   104    1
  109   104   105    1
  110   106   107    1
  111    12   108    1
  112   106   108    1
  113   106   109    1
  114   109   110    1
  115   109   111    1
  116   111   112    1
  117   109   113    1
  118   113   114    1
  119   113   115    1
  120   115   116    1
  121    87   117    1
  122   113   117    1
  123   117   118    1
  124   117   119    1
  125   119   120    1
  126   106   121    1
  127   119   121    1
  128   119   122    1
  129   122   123    1
  130   122   124    1
  131   122   125    1
  132   125   126    1
  133   127   128    1
  134   127   129    1
  135   127   130    1
  136   127   131    1
  137   131   132    1
  138   131   133    1
  139   131   134    1
  140   134   135    1
  141   134   136    1
  142   134   137    1
  143   137   138    1
  144   137   139    1
  145   137   140    1
  146   140   141    1
  147   140   142    1
  148   140   143    1
  149   143   144    1
  150   143   145    1
  151   143   146    1
  152   146   147    1
  153   146   148    1
  154   146   149    1
  155   149   150    1
  156   149   151    1
  157   149   152    1
  158   152   153    1
  159   152   154    1
  160   152   155    1
@<TRIPOS>SUBSTRUCTURE
       1 MOL1            1 RESIDUE      1      MOL     
       2 MOL1          155 RESIDUE      1      MOL     
@<SCITEGIC>MOL_PROPERTY
VM2 Rank
SciTegic.value.IntegerValue
7

@<SCITEGIC>MOL_PROPERTY
Conf_Id
SciTegic.value.IntegerValue
27544

@<SCITEGIC>MOL_PROPERTY
Probability
SciTegic.value.DoubleValue
1.64

@<SCITEGIC>MOL_PROPERTY
Sum Probability
SciTegic.value.DoubleValue
18.64

@<SCITEGIC>MOL_PROPERTY
Delta G
SciTegic.value.DoubleValue
0.782

@<SCITEGIC>MOL_PROPERTY
G
SciTegic.value.DoubleValue
574.858

@<SCITEGIC>MOL_PROPERTY
E
SciTegic.value.DoubleValue
367.864

@<SCITEGIC>MOL_PROPERTY
-TS
SciTegic.value.DoubleValue
206.995

@<SCITEGIC>MOL_PROPERTY
U+W
SciTegic.value.DoubleValue
231.045

@<SCITEGIC>MOL_PROPERTY
U
SciTegic.value.DoubleValue
304.306

@<SCITEGIC>MOL_PROPERTY
W
SciTegic.value.DoubleValue
-73.261

@<SCITEGIC>MOL_PROPERTY
W(PB)
SciTegic.value.DoubleValue
-79.450

@<SCITEGIC>MOL_PROPERTY
W(SA)
SciTegic.value.DoubleValue
6.190

@<SCITEGIC>MOL_PROPERTY
Valence
SciTegic.value.DoubleValue
146.822

@<SCITEGIC>MOL_PROPERTY
Coulomb
SciTegic.value.DoubleValue
186.294

@<SCITEGIC>MOL_PROPERTY
VdW
SciTegic.value.DoubleValue
-28.811

@<SCITEGIC>MOL_PROPERTY
VdW6
SciTegic.value.DoubleValue
-180.777

@<SCITEGIC>MOL_PROPERTY
VdW12
SciTegic.value.DoubleValue
151.967

@<SCITEGIC>MOL_PROPERTY
Bond
SciTegic.value.DoubleValue
4.305

@<SCITEGIC>MOL_PROPERTY
Angle
SciTegic.value.DoubleValue
9.224

@<SCITEGIC>MOL_PROPERTY
Pdih
SciTegic.value.DoubleValue
133.294

@<SCITEGIC>MOL_PROPERTY
Idih
SciTegic.value.DoubleValue
0.000

@<SCITEGIC>MOL_PROPERTY
Tether
SciTegic.value.DoubleValue
0.000

@<TRIPOS>MOLECULE
CD_guest-3_vm2_single.mol2 : vm2 host+ligand conformer 8
         155         160           2
SMALL
USER_CHARGES
 
@<TRIPOS>ATOM
       1    C1      16.432829   15.299896   21.800481 C.3        1 MOL1         0.2972
       2    H1      15.376580   15.190522   22.076417 H          1 MOL1         0.0751
       3    O1      16.692630   16.577198   21.183857 O.3        1 MOL1        -0.3740
       4    C2      17.338253   15.153872   23.051452 C.3        1 MOL1         0.1003
       5    H2      17.151832   14.155770   23.468830 H          1 MOL1         0.0783
       6    O2      17.033957   16.144886   24.046457 O.3        1 MOL1        -0.5519
       7    H3      16.115226   16.459680   23.869360 H          1 MOL1         0.3769
       8    C3      18.833023   15.244287   22.666791 C.3        1 MOL1         0.1053
       9    H4      19.036763   16.269710   22.337891 H          1 MOL1         0.0783
      10    O3      19.624386   14.946393   23.820311 O.3        1 MOL1        -0.5519
      11    H5      19.214887   15.476834   24.540760 H          1 MOL1         0.3769
      12    C4      19.191966   14.291760   21.498434 C.3        1 MOL1         0.1018
      13    H6      19.265515   13.266290   21.884103 H          1 MOL1         0.0783
      14    C5      18.156162   14.352419   20.340845 C.3        1 MOL1         0.1043
      15    H7      18.283956   15.307982   19.814958 H          1 MOL1         0.0783
      16    O4      16.808946   14.265103   20.867133 O.3        1 MOL1        -0.3740
      17    C6      18.332761   13.222329   19.302301 C.3        1 MOL1         0.0138
      18    H8      19.305887   13.340492   18.807415 H          1 MOL1         0.0794
      19    H9      17.559063   13.327981   18.530061 H          1 MOL1         0.0794
      20    O5      18.246684   11.934290   19.918737 O.3        1 MOL1        -0.5486
      21    H10     17.370531   11.899560   20.363434 H          1 MOL1         0.3769
      22    C7      14.790706   20.263562   20.810456 C.3        1 MOL1         0.2972
      23    H11     14.106754   21.086824   20.566474 H          1 MOL1         0.0751
      24    O6      16.062003   20.743467   21.288130 O.3        1 MOL1        -0.3740
      25    C8      14.191152   19.350987   21.908220 C.3        1 MOL1         0.1003
      26    H12     13.251211   18.941924   21.515338 H          1 MOL1         0.0783
      27    O7      13.914987   20.093434   23.106908 O.3        1 MOL1        -0.5519
      28    H13     14.716627   20.638738   23.311681 H          1 MOL1         0.3769
      29    C9      15.137636   18.163014   22.214419 C.3        1 MOL1         0.1053
      30    H14     16.047802   18.564407   22.681483 H          1 MOL1         0.0783
      31    O8      14.474250   17.281477   23.127109 O.3        1 MOL1        -0.5519
      32    H15     14.013426   17.877183   23.761528 H          1 MOL1         0.3769
      33    C10     15.551522   17.416635   20.911822 C.3        1 MOL1         0.1018
      34    H16     14.705601   16.825587   20.536356 H          1 MOL1         0.0783
      35    C11     16.008022   18.399131   19.800453 C.3        1 MOL1         0.1043
      36    H17     16.974944   18.830281   20.085117 H          1 MOL1         0.0783
      37    O9      15.022165   19.447130   19.643575 O.3        1 MOL1        -0.3740
      38    C12     16.178139   17.702977   18.434246 C.3        1 MOL1         0.0138
      39    H18     16.820743   16.820877   18.553954 H          1 MOL1         0.0794
      40    H19     15.198940   17.357109   18.077132 H          1 MOL1         0.0794
      41    O10     16.767418   18.606593   17.497028 O.3        1 MOL1        -0.5486
      42    H20     16.189982   19.400266   17.482734 H          1 MOL1         0.3769
      43    C13     18.331243   24.129122   21.799597 C.3        1 MOL1         0.2972
      44    H21     18.745744   25.137233   21.927896 H          1 MOL1         0.0751
      45    O11     19.366390   23.141227   21.616370 O.3        1 MOL1        -0.3740
      46    C14     17.494998   23.739810   23.043114 C.3        1 MOL1         0.1003
      47    H22     16.661341   24.450270   23.116585 H          1 MOL1         0.0783
      48    O12     18.287334   23.815906   24.238772 O.3        1 MOL1        -0.5519
      49    H23     19.236715   23.764695   23.963907 H          1 MOL1         0.3769
      50    C15     16.901614   22.322351   22.877678 C.3        1 MOL1         0.1053
      51    H24     17.733810   21.611039   22.915219 H          1 MOL1         0.0783
      52    O13     15.998836   22.051150   23.954000 O.3        1 MOL1        -0.5519
      53    H25     16.476885   22.340888   24.763090 H          1 MOL1         0.3769
      54    C16     16.165923   22.159591   21.522178 C.3        1 MOL1         0.1018
      55    H26     15.180042   22.635723   21.607547 H          1 MOL1         0.0783
      56    C17     16.945826   22.762915   20.318610 C.3        1 MOL1         0.1043
      57    H27     17.782662   22.092181   20.082605 H          1 MOL1         0.0783
      58    O14     17.456365   24.077842   20.654270 O.3        1 MOL1        -0.3740
      59    C18     16.091122   22.904746   19.039557 C.3        1 MOL1         0.0138
      60    H28     15.787123   21.906982   18.697557 H          1 MOL1         0.0794
      61    H29     16.711322   23.345107   18.247309 H          1 MOL1         0.0794
      62    O15     14.938093   23.717357   19.276900 O.3        1 MOL1        -0.5486
      63    H30     15.272948   24.581789   19.604135 H          1 MOL1         0.3769
      64    C19     23.445853   22.703024   20.975296 C.3        1 MOL1         0.2972
      65    H31     24.502993   22.841629   20.714295 H          1 MOL1         0.0751
      66    O16     23.142076   21.313544   21.215518 O.3        1 MOL1        -0.3740
      67    C20     23.059995   23.552965   22.217440 C.3        1 MOL1         0.1003
      68    H32     23.219856   24.605065   21.947917 H          1 MOL1         0.0783
      69    O17     23.870490   23.243851   23.360713 O.3        1 MOL1        -0.5519
      70    H33     23.686983   22.299769   23.597643 H          1 MOL1         0.3769
      71    C21     21.560114   23.372234   22.551076 C.3        1 MOL1         0.1053
      72    H34     21.400939   22.330161   22.861861 H          1 MOL1         0.0783
      73    O18     21.193965   24.257364   23.614244 O.3        1 MOL1        -0.5519
      74    H35     21.928372   24.194441   24.265411 H          1 MOL1         0.3769
      75    C22     20.677849   23.648464   21.308373 C.3        1 MOL1         0.1018
      76    H36     20.665757   24.727635   21.105034 H          1 MOL1         0.0783
      77    C23     21.185488   22.909680   20.041722 C.3        1 MOL1         0.1043
      78    H37     20.980964   21.838127   20.149606 H          1 MOL1         0.0783
      79    O19     22.608615   23.144571   19.885010 O.3        1 MOL1        -0.3740
      80    C24     20.491558   23.409789   18.757765 C.3        1 MOL1         0.0138
      81    H38     20.736294   24.468924   18.602051 H          1 MOL1         0.0794
      82    H39     19.403905   23.333526   18.876932 H          1 MOL1         0.0794
      83    O20     20.912613   22.628704   17.638615 O.3        1 MOL1        -0.5486
      84    H40     21.894047   22.648571   17.649179 H          1 MOL1         0.3769
      85    C25     24.869946   17.643752   22.066185 C.3        1 MOL1         0.2972
      86    H41     25.529078   16.814486   22.353840 H          1 MOL1         0.0751
      87    O21     23.674361   17.172023   21.412963 O.3        1 MOL1        -0.3740
      88    C26     24.477628   18.478515   23.313661 C.3        1 MOL1         0.1003
      89    H42     25.406591   18.879465   23.739665 H          1 MOL1         0.0783
      90    O22     23.811368   17.682072   24.306408 O.3        1 MOL1        -0.5519
      91    H43     23.896951   16.736837   24.031948 H          1 MOL1         0.3769
      92    C27     23.578634   19.669120   22.915017 C.3        1 MOL1         0.1053
      93    H44     22.624409   19.255978   22.570020 H          1 MOL1         0.0783
      94    O23     23.358951   20.491212   24.064800 O.3        1 MOL1        -0.5519
      95    H45     23.148368   19.853770   24.784160 H          1 MOL1         0.3769
      96    C28     24.199710   20.500501   21.763030 C.3        1 MOL1         0.1018
      97    H46     25.016463   21.110323   22.171383 H          1 MOL1         0.0783
      98    C29     24.737170   19.607100   20.608999 C.3        1 MOL1         0.1043
      99    H47     23.877654   19.189070   20.068147 H          1 MOL1         0.0783
     100    O24     25.545572   18.529835   21.147973 O.3        1 MOL1        -0.3740
     101    C30     25.598547   20.377302   19.583630 C.3        1 MOL1         0.0138
     102    H48     24.969835   21.119429   19.073998 H          1 MOL1         0.0794
     103    H49     25.954002   19.672248   18.820276 H          1 MOL1         0.0794
     104    O25     26.706308   21.022439   20.218173 O.3        1 MOL1        -0.5486
     105    H50     27.215298   20.314379   20.672042 H          1 MOL1         0.3769
     106    C31     21.474457   13.775394   20.732747 C.3        1 MOL1         0.2972
     107    H51     21.051074   12.798998   20.463778 H          1 MOL1         0.0751
     108    O26     20.442158   14.758994   20.957086 O.3        1 MOL1        -0.3740
     109    C32     22.386971   13.670967   21.982465 C.3        1 MOL1         0.1003
     110    H52     23.230775   13.024091   21.708854 H          1 MOL1         0.0783
     111    O27     21.707552   13.089139   23.104404 O.3        1 MOL1        -0.5519
     112    H53     20.984031   13.716017   23.358642 H          1 MOL1         0.3769
     113    C33     22.955966   15.061612   22.352880 C.3        1 MOL1         0.1053
     114    H54     22.121845   15.689162   22.697433 H          1 MOL1         0.0783
     115    O28     23.913203   14.904666   23.405707 O.3        1 MOL1        -0.5519
     116    H55     23.516965   14.239644   24.013716 H          1 MOL1         0.3769
     117    C34     23.611988   15.760746   21.129465 C.3        1 MOL1         0.1018
     118    H56     24.611357   15.339151   20.956961 H          1 MOL1         0.0783
     119    C35     22.787188   15.623745   19.820239 C.3        1 MOL1         0.1043
     120    H57     21.936835   16.315405   19.864287 H          1 MOL1         0.0783
     121    O29     22.313080   14.262659   19.665432 O.3        1 MOL1        -0.3740
     122    C36     23.629991   15.972449   18.575733 C.3        1 MOL1         0.0138
     123    H58     24.447816   15.246270   18.476466 H          1 MOL1         0.0794
     124    H59     24.079179   16.965689   18.709575 H          1 MOL1         0.0794
     125    O30     22.807293   15.962713   17.408020 O.3        1 MOL1        -0.5486
     126    H60     22.335785   15.100746   17.414522 H          1 MOL1         0.3769
     127    C1      19.736329   19.156844   23.409774 C.3        1 MOL1        -0.2427
     128    H1      20.419944   19.999562   23.575749 H          1 MOL1         0.0958
     129    H2      18.906469   19.249677   24.122349 H          1 MOL1         0.0958
     130    H3      20.274798   18.227460   23.638423 H          1 MOL1         0.0958
     131    C2      19.207575   19.149933   21.961241 C.3        1 MOL1        -0.1412
     132    H4      18.684095   20.089933   21.756007 H          1 MOL1         0.0947
     133    H5      18.469224   18.349372   21.845860 H          1 MOL1         0.0947
     134    C3      20.340944   18.974710   20.933598 C.3        1 MOL1        -0.1437
     135    H6      21.071823   19.776740   21.077935 H          1 MOL1         0.0947
     136    H7      20.865307   18.025848   21.110817 H          1 MOL1         0.0947
     137    C4      19.815503   19.026086   19.484038 C.3        1 MOL1        -0.1437
     138    H8      19.176905   19.910724   19.352875 H          1 MOL1         0.0947
     139    H9      19.187330   18.146288   19.287857 H          1 MOL1         0.0947
     140    C5      20.968367   19.083995   18.460392 C.3        1 MOL1        -0.1437
     141    H10     21.598766   19.960194   18.664975 H          1 MOL1         0.0947
     142    H11     21.607359   18.199692   18.570840 H          1 MOL1         0.0947
     143    C6      20.437308   19.160090   17.013353 C.3        1 MOL1        -0.1437
     144    H12     19.791846   20.043385   16.905706 H          1 MOL1         0.0947
     145    H13     19.810711   18.281532   16.804444 H          1 MOL1         0.0947
     146    C7      21.588127   19.234720   15.987809 C.3        1 MOL1        -0.1477
     147    H14     22.209038   20.116186   16.195559 H          1 MOL1         0.0947
     148    H15     22.232880   18.351683   16.091863 H          1 MOL1         0.0947
     149    C8      21.051967   19.313111   14.548686 C.3        1 MOL1         0.0145
     150    H16     20.426564   20.203072   14.437537 H          1 MOL1         0.0921
     151    H17     20.439969   18.432415   14.336094 H          1 MOL1         0.0921
     152    N1      22.152824   19.380305   13.510273 N.4        1 MOL1        -0.5969
     153    H18     22.747560   20.205259   13.639866 H          1 MOL1         0.3603
     154    H19     21.775304   19.428535   12.557724 H          1 MOL1         0.3603
     155    H20     22.762927   18.557207   13.550636 H          1 MOL1         0.3603
@<TRIPOS>BOND
    1     1     2    1
    2     1     3    1
    3     1     4    1
    4     4     5    1
    5     4     6    1
    6     6     7    1
    7     4     8    1
    8     8     9    1
    9     8    10    1
   10    10    11    1
   11     8    12    1
   12    12    13    1
   13    12    14    1
   14    14    15    1
   15     1    16    1
   16    14    16    1
   17    14    17    1
   18    17    18    1
   19    17    19    1
   20    17    20    1
   21    20    21    1
   22    22    23    1
   23    22    24    1
   24    22    25    1
   25    25    26    1
   26    25    27    1
   27    27    28    1
   28    25    29    1
   29    29    30    1
   30    29    31    1
   31    31    32    1
   32     3    33    1
   33    29    33    1
   34    33    34    1
   35    33    35    1
   36    35    36    1
   37    22    37    1
   38    35    37    1
   39    35    38    1
   40    38    39    1
   41    38    40    1
   42    38    41    1
   43    41    42    1
   44    43    44    1
   45    43    45    1
   46    43    46    1
   47    46    47    1
   48    46    48    1
   49    48    49    1
   50    46    50    1
   51    50    51    1
   52    50    52    1
   53    52    53    1
   54    24    54    1
   55    50    54    1
   56    54    55    1
   57    54    56    1
   58    56    57    1
   59    43    58    1
   60    56    58    1
   61    56    59    1
   62    59    60    1
   63    59    61    1
   64    59    62    1
   65    62    63    1
   66    64    65    1
   67    64    66    1
   68    64    67    1
   69    67    68    1
   70    67    69    1
   71    69    70    1
   72    67    71    1
   73    71    72    1
   74    71    73    1
   75    73    74    1
   76    45    75    1
   77    71    75    1
   78    75    76    1
   79    75    77    1
   80    77    78    1
   81    64    79    1
   82    77    79    1
   83    77    80    1
   84    80    81    1
   85    80    82    1
   86    80    83    1
   87    83    84    1
   88    85    86    1
   89    85    87    1
   90    85    88    1
   91    88    89    1
   92    88    90    1
   93    90    91    1
   94    88    92    1
   95    92    93    1
   96    92    94    1
   97    94    95    1
   98    66    96    1
   99    92    96    1
  100    96    97    1
  101    96    98    1
  102    98    99    1
  103    85   100    1
  104    98   100    1
  105    98   101    1
  106   101   102    1
  107   101   103    1
  108   101   104    1
  109   104   105    1
  110   106   107    1
  111    12   108    1
  112   106   108    1
  113   106   109    1
  114   109   110    1
  115   109   111    1
  116   111   112    1
  117   109   113    1
  118   113   114    1
  119   113   115    1
  120   115   116    1
  121    87   117    1
  122   113   117    1
  123   117   118    1
  124   117   119    1
  125   119   120    1
  126   106   121    1
  127   119   121    1
  128   119   122    1
  129   122   123    1
  130   122   124    1
  131   122   125    1
  132   125   126    1
  133   127   128    1
  134   127   129    1
  135   127   130    1
  136   127   131    1
  137   131   132    1
  138   131   133    1
  139   131   134    1
  140   134   135    1
  141   134   136    1
  142   134   137    1
  143   137   138    1
  144   137   139    1
  145   137   140    1
  146   140   141    1
  147   140   142    1
  148   140   143    1
  149   143   144    1
  150   143   145    1
  151   143   146    1
  152   146   147    1
  153   146   148    1
  154   146   149    1
  155   149   150    1
  156   149   151    1
  157   149   152    1
  158   152   153    1
  159   152   154    1
  160   152   155    1
@<TRIPOS>SUBSTRUCTURE
       1 MOL1            1 RESIDUE      1      MOL     
       2 MOL1          155 RESIDUE      1      MOL     
@<SCITEGIC>MOL_PROPERTY
VM2 Rank
SciTegic.value.IntegerValue
8

@<SCITEGIC>MOL_PROPERTY
Conf_Id
SciTegic.value.IntegerValue
22011

@<SCITEGIC>MOL_PROPERTY
Probability
SciTegic.value.DoubleValue
1.36

@<SCITEGIC>MOL_PROPERTY
Sum Probability
SciTegic.value.DoubleValue
20.00

@<SCITEGIC>MOL_PROPERTY
Delta G
SciTegic.value.DoubleValue
0.895

@<SCITEGIC>MOL_PROPERTY
G
SciTegic.value.DoubleValue
574.972

@<SCITEGIC>MOL_PROPERTY
E
SciTegic.value.DoubleValue
368.824

@<SCITEGIC>MOL_PROPERTY
-TS
SciTegic.value.DoubleValue
206.147

@<SCITEGIC>MOL_PROPERTY
U+W
SciTegic.value.DoubleValue
232.005

@<SCITEGIC>MOL_PROPERTY
U
SciTegic.value.DoubleValue
305.434

@<SCITEGIC>MOL_PROPERTY
W
SciTegic.value.DoubleValue
-73.429

@<SCITEGIC>MOL_PROPERTY
W(PB)
SciTegic.value.DoubleValue
-79.746

@<SCITEGIC>MOL_PROPERTY
W(SA)
SciTegic.value.DoubleValue
6.317

@<SCITEGIC>MOL_PROPERTY
Valence
SciTegic.value.DoubleValue
146.799

@<SCITEGIC>MOL_PROPERTY
Coulomb
SciTegic.value.DoubleValue
185.188

@<SCITEGIC>MOL_PROPERTY
VdW
SciTegic.value.DoubleValue
-26.553

@<SCITEGIC>MOL_PROPERTY
VdW6
SciTegic.value.DoubleValue
-177.763

@<SCITEGIC>MOL_PROPERTY
VdW12
SciTegic.value.DoubleValue
151.211

@<SCITEGIC>MOL_PROPERTY
Bond
SciTegic.value.DoubleValue
4.329

@<SCITEGIC>MOL_PROPERTY
Angle
SciTegic.value.DoubleValue
9.634

@<SCITEGIC>MOL_PROPERTY
Pdih
SciTegic.value.DoubleValue
132.837

@<SCITEGIC>MOL_PROPERTY
Idih
SciTegic.value.DoubleValue
0.000

@<SCITEGIC>MOL_PROPERTY
Tether
SciTegic.value.DoubleValue
0.000

