@<TRIPOS>MOLECULE
CD_guest-3_vm2_single.mol2 : vm2 host+ligand conformer 1
         155         160           2
SMALL
USER_CHARGES
 
@<TRIPOS>ATOM
       1    C1      16.353312   15.183462   21.741343 C.3        1 MOL1         0.2972
       2    H1      15.278018   15.076410   21.933885 H          1 MOL1         0.0751
       3    O1      16.685903   16.515601   21.299779 O.3        1 MOL1        -0.3740
       4    C2      17.163883   14.859625   23.021616 C.3        1 MOL1         0.1003
       5    H2      16.955543   13.813134   23.279782 H          1 MOL1         0.0783
       6    O2      16.774933   15.698531   24.120333 O.3        1 MOL1        -0.5519
       7    H3      15.971480   16.198280   23.835383 H          1 MOL1         0.3769
       8    C3      18.681354   14.995680   22.757961 C.3        1 MOL1         0.1053
       9    H4      18.901543   16.054104   22.580374 H          1 MOL1         0.0783
      10    O3      19.396316   14.550763   23.913553 O.3        1 MOL1        -0.5519
      11    H5      18.928099   14.972535   24.669191 H          1 MOL1         0.3769
      12    C4      19.123095   14.194960   21.506020 C.3        1 MOL1         0.1018
      13    H6      19.194497   13.132682   21.775411 H          1 MOL1         0.0783
      14    C5      18.159604   14.377605   20.298056 C.3        1 MOL1         0.1043
      15    H7      18.326486   15.378544   19.878890 H          1 MOL1         0.0783
      16    O4      16.778036   14.255098   20.721429 O.3        1 MOL1        -0.3740
      17    C6      18.399725   13.355313   19.165039 C.3        1 MOL1         0.0138
      18    H8      19.404464   13.510461   18.749931 H          1 MOL1         0.0794
      19    H9      17.680070   13.546710   18.357822 H          1 MOL1         0.0794
      20    O5      18.265427   12.013573   19.642536 O.3        1 MOL1        -0.5486
      21    H10     17.360975   11.945229   20.021880 H          1 MOL1         0.3769
      22    C7      14.867946   20.236623   20.825657 C.3        1 MOL1         0.2972
      23    H11     14.191377   21.057802   20.555339 H          1 MOL1         0.0751
      24    O6      16.134389   20.723396   21.308271 O.3        1 MOL1        -0.3740
      25    C8      14.246561   19.350173   21.934737 C.3        1 MOL1         0.1003
      26    H12     13.299354   18.955747   21.544457 H          1 MOL1         0.0783
      27    O7      13.983253   20.115244   23.122075 O.3        1 MOL1        -0.5519
      28    H13     14.795774   20.646265   23.321328 H          1 MOL1         0.3769
      29    C9      15.164793   18.146117   22.263472 C.3        1 MOL1         0.1053
      30    H14     16.076604   18.533673   22.738509 H          1 MOL1         0.0783
      31    O8      14.478629   17.275970   23.169446 O.3        1 MOL1        -0.5519
      32    H15     14.037229   17.877462   23.811618 H          1 MOL1         0.3769
      33    C10     15.580369   17.381112   20.976435 C.3        1 MOL1         0.1018
      34    H16     14.725747   16.812405   20.586109 H          1 MOL1         0.0783
      35    C11     16.084918   18.342478   19.869410 C.3        1 MOL1         0.1043
      36    H17     17.049855   18.761775   20.176741 H          1 MOL1         0.0783
      37    O9      15.115516   19.399759   19.676612 O.3        1 MOL1        -0.3740
      38    C12     16.277144   17.630187   18.514590 C.3        1 MOL1         0.0138
      39    H18     16.900668   16.738555   18.657644 H          1 MOL1         0.0794
      40    H19     15.301274   17.297497   18.136442 H          1 MOL1         0.0794
      41    O10     16.904324   18.514463   17.583717 O.3        1 MOL1        -0.5486
      42    H20     16.339465   19.316239   17.545486 H          1 MOL1         0.3769
      43    C13     18.360156   24.162685   21.753638 C.3        1 MOL1         0.2972
      44    H21     18.751466   25.181872   21.866105 H          1 MOL1         0.0751
      45    O11     19.415622   23.196852   21.572672 O.3        1 MOL1        -0.3740
      46    C14     17.545391   23.764567   23.008788 C.3        1 MOL1         0.1003
      47    H22     16.692236   24.451474   23.082401 H          1 MOL1         0.0783
      48    O12     18.343771   23.873433   24.197878 O.3        1 MOL1        -0.5519
      49    H23     19.292488   23.839178   23.918367 H          1 MOL1         0.3769
      50    C15     16.993076   22.329156   22.859728 C.3        1 MOL1         0.1053
      51    H24     17.849277   21.645480   22.874447 H          1 MOL1         0.0783
      52    O13     16.122792   22.032636   23.956230 O.3        1 MOL1        -0.5519
      53    H25     16.599075   22.361616   24.751087 H          1 MOL1         0.3769
      54    C16     16.234103   22.143727   21.521434 C.3        1 MOL1         0.1018
      55    H26     15.246428   22.613673   21.619692 H          1 MOL1         0.0783
      56    C17     16.991800   22.744735   20.302057 C.3        1 MOL1         0.1043
      57    H27     17.841117   22.088853   20.068713 H          1 MOL1         0.0783
      58    O14     17.476578   24.075259   20.616534 O.3        1 MOL1        -0.3740
      59    C18     16.125021   22.852682   19.027799 C.3        1 MOL1         0.0138
      60    H28     15.844974   21.844436   18.696467 H          1 MOL1         0.0794
      61    H29     16.728278   23.301739   18.227387 H          1 MOL1         0.0794
      62    O15     14.952779   23.637170   19.265727 O.3        1 MOL1        -0.5486
      63    H30     15.267064   24.514331   19.579087 H          1 MOL1         0.3769
      64    C19     23.484760   22.762679   20.951097 C.3        1 MOL1         0.2972
      65    H31     24.545063   22.886458   20.695448 H          1 MOL1         0.0751
      66    O16     23.161297   21.378051   21.197694 O.3        1 MOL1        -0.3740
      67    C20     23.102005   23.623865   22.185853 C.3        1 MOL1         0.1003
      68    H32     23.269087   24.673104   21.909602 H          1 MOL1         0.0783
      69    O17     23.907909   23.316914   23.332922 O.3        1 MOL1        -0.5519
      70    H33     23.717794   22.375794   23.576136 H          1 MOL1         0.3769
      71    C21     21.600172   23.453845   22.516031 C.3        1 MOL1         0.1053
      72    H34     21.435599   22.414947   22.834818 H          1 MOL1         0.0783
      73    O18     21.235559   24.347725   23.572055 O.3        1 MOL1        -0.5519
      74    H35     21.968794   24.287203   24.224816 H          1 MOL1         0.3769
      75    C22     20.719807   23.724243   21.270042 C.3        1 MOL1         0.1018
      76    H36     20.694223   24.803589   21.069011 H          1 MOL1         0.0783
      77    C23     21.233265   22.990808   20.002684 C.3        1 MOL1         0.1043
      78    H37     21.019847   21.921510   20.105792 H          1 MOL1         0.0783
      79    O19     22.659259   23.212216   19.855049 O.3        1 MOL1        -0.3740
      80    C24     20.547610   23.496271   18.716365 C.3        1 MOL1         0.0138
      81    H38     20.804712   24.552182   18.558622 H          1 MOL1         0.0794
      82    H39     19.458711   23.432512   18.834982 H          1 MOL1         0.0794
      83    O20     20.960509   22.706901   17.599357 O.3        1 MOL1        -0.5486
      84    H40     21.942232   22.725883   17.602185 H          1 MOL1         0.3769
      85    C25     24.824992   17.684872   22.072904 C.3        1 MOL1         0.2972
      86    H41     25.472541   16.848237   22.365325 H          1 MOL1         0.0751
      87    O21     23.620233   17.224335   21.428230 O.3        1 MOL1        -0.3740
      88    C26     24.446594   18.532033   23.316062 C.3        1 MOL1         0.1003
      89    H42     25.382565   18.911746   23.746144 H          1 MOL1         0.0783
      90    O22     23.756004   17.750290   24.304254 O.3        1 MOL1        -0.5519
      91    H43     23.884755   16.799597   24.068503 H          1 MOL1         0.3769
      92    C27     23.575064   19.741623   22.912366 C.3        1 MOL1         0.1053
      93    H44     22.611800   19.347859   22.573536 H          1 MOL1         0.0783
      94    O23     23.374633   20.574493   24.057640 O.3        1 MOL1        -0.5519
      95    H45     23.156115   19.945932   24.782394 H          1 MOL1         0.3769
      96    C28     24.206599   20.552752   21.751424 C.3        1 MOL1         0.1018
      97    H46     25.034892   21.152447   22.151507 H          1 MOL1         0.0783
      98    C29     24.723335   19.640501   20.603147 C.3        1 MOL1         0.1043
      99    H47     23.854411   19.233853   20.069112 H          1 MOL1         0.0783
     100    O24     25.513305   18.553007   21.147248 O.3        1 MOL1        -0.3740
     101    C30     25.594707   20.387011   19.568759 C.3        1 MOL1         0.0138
     102    H48     24.977972   21.137364   19.056510 H          1 MOL1         0.0794
     103    H49     25.933624   19.670046   18.808988 H          1 MOL1         0.0794
     104    O25     26.717049   21.015550   20.194280 O.3        1 MOL1        -0.5486
     105    H50     27.214345   20.301216   20.651300 H          1 MOL1         0.3769
     106    C31     21.440410   13.788941   20.801510 C.3        1 MOL1         0.2972
     107    H51     21.035199   12.804082   20.535099 H          1 MOL1         0.0751
     108    O26     20.393807   14.736259   21.098176 O.3        1 MOL1        -0.3740
     109    C32     22.398948   13.695487   22.015470 C.3        1 MOL1         0.1003
     110    H52     23.249404   13.073150   21.707728 H          1 MOL1         0.0783
     111    O27     21.768330   13.085691   23.151289 O.3        1 MOL1        -0.5519
     112    H53     20.977139   13.636568   23.379828 H          1 MOL1         0.3769
     113    C33     22.943603   15.098118   22.379530 C.3        1 MOL1         0.1053
     114    H54     22.104364   15.704123   22.749420 H          1 MOL1         0.0783
     115    O28     23.930724   14.958953   23.407227 O.3        1 MOL1        -0.5519
     116    H55     23.567232   14.277169   24.017300 H          1 MOL1         0.3769
     117    C34     23.548582   15.814303   21.138758 C.3        1 MOL1         0.1018
     118    H56     24.541789   15.398259   20.922635 H          1 MOL1         0.0783
     119    C35     22.671863   15.682559   19.862769 C.3        1 MOL1         0.1043
     120    H57     21.810661   16.356820   19.951742 H          1 MOL1         0.0783
     121    O29     22.217782   14.315580   19.706917 O.3        1 MOL1        -0.3740
     122    C36     23.459071   16.060920   18.589955 C.3        1 MOL1         0.0138
     123    H58     24.267491   15.334060   18.434428 H          1 MOL1         0.0794
     124    H59     23.920922   17.047388   18.729737 H          1 MOL1         0.0794
     125    O30     22.585694   16.088566   17.459365 O.3        1 MOL1        -0.5486
     126    H60     22.124071   15.221611   17.449401 H          1 MOL1         0.3769
     127    C1      18.613899   18.967126   24.530809 C.3        1 MOL1        -0.2427
     128    H1      18.073390   18.018891   24.424646 H          1 MOL1         0.0958
     129    H2      19.005742   19.017482   25.554608 H          1 MOL1         0.0958
     130    H3      17.893893   19.784980   24.404209 H          1 MOL1         0.0958
     131    C2      19.760660   19.065896   23.504219 C.3        1 MOL1        -0.1412
     132    H4      20.470312   18.242763   23.671161 H          1 MOL1         0.0947
     133    H5      20.315118   20.001378   23.664659 H          1 MOL1         0.0947
     134    C3      19.233228   19.015539   22.054662 C.3        1 MOL1        -0.1437
     135    H6      18.651907   18.100757   21.902083 H          1 MOL1         0.0947
     136    H7      18.549603   19.852648   21.880975 H          1 MOL1         0.0947
     137    C4      20.377454   19.075664   21.027064 C.3        1 MOL1        -0.1437
     138    H8      21.053826   18.224730   21.181312 H          1 MOL1         0.0947
     139    H9      20.959776   19.987035   21.199820 H          1 MOL1         0.0947
     140    C5      19.859339   19.070867   19.575108 C.3        1 MOL1        -0.1437
     141    H10     19.305164   18.141237   19.384952 H          1 MOL1         0.0947
     142    H11     19.154318   19.900844   19.428486 H          1 MOL1         0.0947
     143    C6      21.017437   19.197550   18.564115 C.3        1 MOL1        -0.1437
     144    H12     21.723555   18.372172   18.711032 H          1 MOL1         0.0947
     145    H13     21.575254   20.125303   18.748237 H          1 MOL1         0.0947
     146    C7      20.507457   19.184210   17.109305 C.3        1 MOL1        -0.1477
     147    H14     19.927815   18.268860   16.928181 H          1 MOL1         0.0947
     148    H15     19.829700   20.033696   16.948865 H          1 MOL1         0.0947
     149    C8      21.675922   19.258313   16.113223 C.3        1 MOL1         0.0145
     150    H16     22.333195   18.395250   16.255203 H          1 MOL1         0.0921
     151    H17     22.253787   20.168868   16.292881 H          1 MOL1         0.0921
     152    N1      21.220373   19.270355   14.669240 N.4        1 MOL1        -0.5969
     153    H18     20.688324   18.426128   14.434618 H          1 MOL1         0.3603
     154    H19     22.013041   19.318051   14.020403 H          1 MOL1         0.3603
     155    H20     20.617555   20.075529   14.470744 H          1 MOL1         0.3603
@<TRIPOS>BOND
    1     1     2    1
    2     1     3    1
    3     1     4    1
    4     4     5    1
    5     4     6    1
    6     6     7    1
    7     4     8    1
    8     8     9    1
    9     8    10    1
   10    10    11    1
   11     8    12    1
   12    12    13    1
   13    12    14    1
   14    14    15    1
   15     1    16    1
   16    14    16    1
   17    14    17    1
   18    17    18    1
   19    17    19    1
   20    17    20    1
   21    20    21    1
   22    22    23    1
   23    22    24    1
   24    22    25    1
   25    25    26    1
   26    25    27    1
   27    27    28    1
   28    25    29    1
   29    29    30    1
   30    29    31    1
   31    31    32    1
   32     3    33    1
   33    29    33    1
   34    33    34    1
   35    33    35    1
   36    35    36    1
   37    22    37    1
   38    35    37    1
   39    35    38    1
   40    38    39    1
   41    38    40    1
   42    38    41    1
   43    41    42    1
   44    43    44    1
   45    43    45    1
   46    43    46    1
   47    46    47    1
   48    46    48    1
   49    48    49    1
   50    46    50    1
   51    50    51    1
   52    50    52    1
   53    52    53    1
   54    24    54    1
   55    50    54    1
   56    54    55    1
   57    54    56    1
   58    56    57    1
   59    43    58    1
   60    56    58    1
   61    56    59    1
   62    59    60    1
   63    59    61    1
   64    59    62    1
   65    62    63    1
   66    64    65    1
   67    64    66    1
   68    64    67    1
   69    67    68    1
   70    67    69    1
   71    69    70    1
   72    67    71    1
   73    71    72    1
   74    71    73    1
   75    73    74    1
   76    45    75    1
   77    71    75    1
   78    75    76    1
   79    75    77    1
   80    77    78    1
   81    64    79    1
   82    77    79    1
   83    77    80    1
   84    80    81    1
   85    80    82    1
   86    80    83    1
   87    83    84    1
   88    85    86    1
   89    85    87    1
   90    85    88    1
   91    88    89    1
   92    88    90    1
   93    90    91    1
   94    88    92    1
   95    92    93    1
   96    92    94    1
   97    94    95    1
   98    66    96    1
   99    92    96    1
  100    96    97    1
  101    96    98    1
  102    98    99    1
  103    85   100    1
  104    98   100    1
  105    98   101    1
  106   101   102    1
  107   101   103    1
  108   101   104    1
  109   104   105    1
  110   106   107    1
  111    12   108    1
  112   106   108    1
  113   106   109    1
  114   109   110    1
  115   109   111    1
  116   111   112    1
  117   109   113    1
  118   113   114    1
  119   113   115    1
  120   115   116    1
  121    87   117    1
  122   113   117    1
  123   117   118    1
  124   117   119    1
  125   119   120    1
  126   106   121    1
  127   119   121    1
  128   119   122    1
  129   122   123    1
  130   122   124    1
  131   122   125    1
  132   125   126    1
  133   127   128    1
  134   127   129    1
  135   127   130    1
  136   127   131    1
  137   131   132    1
  138   131   133    1
  139   131   134    1
  140   134   135    1
  141   134   136    1
  142   134   137    1
  143   137   138    1
  144   137   139    1
  145   137   140    1
  146   140   141    1
  147   140   142    1
  148   140   143    1
  149   143   144    1
  150   143   145    1
  151   143   146    1
  152   146   147    1
  153   146   148    1
  154   146   149    1
  155   149   150    1
  156   149   151    1
  157   149   152    1
  158   152   153    1
  159   152   154    1
  160   152   155    1
@<TRIPOS>SUBSTRUCTURE
       1 MOL1            1 RESIDUE      1      MOL     
       2 MOL1          155 RESIDUE      1      MOL     
@<SCITEGIC>MOL_PROPERTY
VM2 Rank
SciTegic.value.IntegerValue
1

@<SCITEGIC>MOL_PROPERTY
Conf_Id
SciTegic.value.IntegerValue
16673

@<SCITEGIC>MOL_PROPERTY
Probability
SciTegic.value.DoubleValue
6.09

@<SCITEGIC>MOL_PROPERTY
Sum Probability
SciTegic.value.DoubleValue
6.09

@<SCITEGIC>MOL_PROPERTY
Delta G
SciTegic.value.DoubleValue
0.000

@<SCITEGIC>MOL_PROPERTY
G
SciTegic.value.DoubleValue
574.077

@<SCITEGIC>MOL_PROPERTY
E
SciTegic.value.DoubleValue
367.048

@<SCITEGIC>MOL_PROPERTY
-TS
SciTegic.value.DoubleValue
207.029

@<SCITEGIC>MOL_PROPERTY
U+W
SciTegic.value.DoubleValue
230.229

@<SCITEGIC>MOL_PROPERTY
U
SciTegic.value.DoubleValue
301.702

@<SCITEGIC>MOL_PROPERTY
W
SciTegic.value.DoubleValue
-71.461

@<SCITEGIC>MOL_PROPERTY
W(PB)
SciTegic.value.DoubleValue
-77.627

@<SCITEGIC>MOL_PROPERTY
W(SA)
SciTegic.value.DoubleValue
6.165

@<SCITEGIC>MOL_PROPERTY
Valence
SciTegic.value.DoubleValue
147.105

@<SCITEGIC>MOL_PROPERTY
Coulomb
SciTegic.value.DoubleValue
183.404

@<SCITEGIC>MOL_PROPERTY
VdW
SciTegic.value.DoubleValue
-28.808

@<SCITEGIC>MOL_PROPERTY
VdW6
SciTegic.value.DoubleValue
-180.785

@<SCITEGIC>MOL_PROPERTY
VdW12
SciTegic.value.DoubleValue
151.978

@<SCITEGIC>MOL_PROPERTY
Bond
SciTegic.value.DoubleValue
4.288

@<SCITEGIC>MOL_PROPERTY
Angle
SciTegic.value.DoubleValue
9.230

@<SCITEGIC>MOL_PROPERTY
Pdih
SciTegic.value.DoubleValue
133.587

@<SCITEGIC>MOL_PROPERTY
Idih
SciTegic.value.DoubleValue
0.000

@<SCITEGIC>MOL_PROPERTY
Tether
SciTegic.value.DoubleValue
0.000

