@<TRIPOS>MOLECULE
CD_guest-s13_vm2_single.mol2 : vm2 host+ligand conformer 1
         152         157           2
SMALL
USER_CHARGES
 
@<TRIPOS>ATOM
       1    C1      16.287627   15.281965   20.759676 C.3        1 MOL1         0.2972
       2    H1      15.254191   15.081307   20.448782 H          1 MOL1         0.0751
       3    O1      16.451610   16.636777   21.218915 O.3        1 MOL1        -0.3740
       4    C2      16.718877   14.322306   21.899090 C.3        1 MOL1         0.1003
       5    H2      16.622131   13.296758   21.519585 H          1 MOL1         0.0783
       6    O2      15.890055   14.478535   23.059239 O.3        1 MOL1        -0.5519
       7    H3      16.312528   13.912136   23.743762 H          1 MOL1         0.3769
       8    C3      18.199280   14.552467   22.285984 C.3        1 MOL1         0.1053
       9    H4      18.274513   15.548327   22.740923 H          1 MOL1         0.0783
      10    O3      18.596842   13.558217   23.237175 O.3        1 MOL1        -0.5519
      11    H5      19.425262   13.896652   23.659480 H          1 MOL1         0.3769
      12    C4      19.118961   14.520689   21.033721 C.3        1 MOL1         0.1018
      13    H6      19.197729   13.492271   20.656227 H          1 MOL1         0.0783
      14    C5      18.574128   15.421752   19.896122 C.3        1 MOL1         0.1043
      15    H7      18.668491   16.473092   20.195938 H          1 MOL1         0.0783
      16    O4      17.187264   15.083522   19.648540 O.3        1 MOL1        -0.3740
      17    C6      19.344150   15.223496   18.574463 C.3        1 MOL1         0.0138
      18    H8      19.189494   14.197733   18.213971 H          1 MOL1         0.0794
      19    H9      20.418477   15.355369   18.755449 H          1 MOL1         0.0794
      20    O5      18.896235   16.171240   17.604023 O.3        1 MOL1        -0.5486
      21    H10     17.918908   16.080243   17.564678 H          1 MOL1         0.3769
      22    C7      14.578306   20.240752   21.626222 C.3        1 MOL1         0.2972
      23    H11     13.920544   21.111837   21.739702 H          1 MOL1         0.0751
      24    O6      15.940601   20.624722   21.347367 O.3        1 MOL1        -0.3740
      25    C8      14.556547   19.380916   22.912565 C.3        1 MOL1         0.1003
      26    H12     13.535599   18.997908   23.039862 H          1 MOL1         0.0783
      27    O7      14.920573   20.153040   24.064635 O.3        1 MOL1        -0.5519
      28    H13     15.054239   19.486624   24.775832 H          1 MOL1         0.3769
      29    C9      15.507300   18.173803   22.764266 C.3        1 MOL1         0.1053
      30    H14     16.529646   18.564450   22.718198 H          1 MOL1         0.0783
      31    O8      15.371167   17.304946   23.894987 O.3        1 MOL1        -0.5519
      32    H15     15.703873   16.418182   23.611989 H          1 MOL1         0.3769
      33    C10     15.243336   17.380583   21.460283 C.3        1 MOL1         0.1018
      34    H16     14.379172   16.722061   21.621754 H          1 MOL1         0.0783
      35    C11     15.006749   18.286918   20.215605 C.3        1 MOL1         0.1043
      36    H17     15.980169   18.675932   19.888380 H          1 MOL1         0.0783
      37    O9      14.130176   19.395156   20.546249 O.3        1 MOL1        -0.3740
      38    C12     14.384837   17.537874   19.016198 C.3        1 MOL1         0.0138
      39    H18     15.090119   16.773514   18.664708 H          1 MOL1         0.0794
      40    H19     14.239848   18.249556   18.192366 H          1 MOL1         0.0794
      41    O10     13.139164   16.932877   19.374281 O.3        1 MOL1        -0.5486
      42    H20     12.561798   17.660301   19.696916 H          1 MOL1         0.3769
      43    C13     18.434287   23.877410   20.796340 C.3        1 MOL1         0.2972
      44    H21     18.878438   24.846961   20.536787 H          1 MOL1         0.0751
      45    O11     19.448318   22.908495   21.138248 O.3        1 MOL1        -0.3740
      46    C14     17.428642   24.024984   21.970326 C.3        1 MOL1         0.1003
      47    H22     16.641226   24.713706   21.637245 H          1 MOL1         0.0783
      48    O12     18.047994   24.559427   23.146922 O.3        1 MOL1        -0.5519
      49    H23     17.343950   24.533507   23.833861 H          1 MOL1         0.3769
      50    C15     16.762221   22.669244   22.300924 C.3        1 MOL1         0.1053
      51    H24     17.534221   22.000643   22.706402 H          1 MOL1         0.0783
      52    O13     15.732696   22.868151   23.276730 O.3        1 MOL1        -0.5519
      53    H25     15.459382   21.968012   23.584325 H          1 MOL1         0.3769
      54    C16     16.170213   22.007763   21.029835 C.3        1 MOL1         0.1018
      55    H26     15.246131   22.523305   20.735665 H          1 MOL1         0.0783
      56    C17     17.156155   22.024887   19.833945 C.3        1 MOL1         0.1043
      57    H27     17.958594   21.304601   20.032052 H          1 MOL1         0.0783
      58    O14     17.698266   23.358294   19.669246 O.3        1 MOL1        -0.3740
      59    C18     16.470194   21.633662   18.509095 C.3        1 MOL1         0.0138
      60    H28     15.729876   22.400082   18.243320 H          1 MOL1         0.0794
      61    H29     15.934652   20.684883   18.641749 H          1 MOL1         0.0794
      62    O15     17.448209   21.499157   17.476670 O.3        1 MOL1        -0.5486
      63    H30     17.966853   22.333871   17.481046 H          1 MOL1         0.3769
      64    C19     23.488358   22.619239   22.052143 C.3        1 MOL1         0.2972
      65    H31     24.527175   22.799999   22.356196 H          1 MOL1         0.0751
      66    O16     23.328017   21.319848   21.446554 O.3        1 MOL1        -0.3740
      67    C20     22.540866   22.736964   23.273068 C.3        1 MOL1         0.1003
      68    H32     22.627198   23.763108   23.653697 H          1 MOL1         0.0783
      69    O17     22.891596   21.822817   24.319587 O.3        1 MOL1        -0.5519
      70    H33     22.130425   21.866982   24.940237 H          1 MOL1         0.3769
      71    C21     21.072301   22.513088   22.852052 C.3        1 MOL1         0.1053
      72    H34     20.964909   21.474365   22.516611 H          1 MOL1         0.0783
      73    O18     20.220181   22.756827   23.977300 O.3        1 MOL1        -0.5519
      74    H35     19.415086   23.210282   23.629924 H          1 MOL1         0.3769
      75    C22     20.679059   23.435436   21.673050 C.3        1 MOL1         0.1018
      76    H36     20.554862   24.458388   22.053655 H          1 MOL1         0.0783
      77    C23     21.738720   23.417936   20.533202 C.3        1 MOL1         0.1043
      78    H37     21.685668   22.444876   20.027286 H          1 MOL1         0.0783
      79    O19     23.067142   23.606388   21.085688 O.3        1 MOL1        -0.3740
      80    C24     21.516117   24.510301   19.463627 C.3        1 MOL1         0.0138
      81    H38     20.572353   24.311092   18.939012 H          1 MOL1         0.0794
      82    H39     22.321449   24.445360   18.719725 H          1 MOL1         0.0794
      83    O20     21.488020   25.813724   20.052267 O.3        1 MOL1        -0.5486
      84    H40     22.346785   25.924995   20.517642 H          1 MOL1         0.3769
      85    C25     25.234468   17.700714   21.029950 C.3        1 MOL1         0.2972
      86    H41     25.889261   16.844099   20.824104 H          1 MOL1         0.0751
      87    O21     23.875438   17.288393   21.289379 O.3        1 MOL1        -0.3740
      88    C26     25.749614   18.529119   22.233183 C.3        1 MOL1         0.1003
      89    H42     26.727141   18.942611   21.952327 H          1 MOL1         0.0783
      90    O22     25.901871   17.727744   23.410634 O.3        1 MOL1        -0.5519
      91    H43     26.148438   18.367266   24.116591 H          1 MOL1         0.3769
      92    C27     24.794782   19.711780   22.518214 C.3        1 MOL1         0.1053
      93    H44     23.836226   19.297916   22.859159 H          1 MOL1         0.0783
      94    O23     25.357229   20.530067   23.549801 O.3        1 MOL1        -0.5519
      95    H45     24.601831   21.042965   23.930342 H          1 MOL1         0.3769
      96    C28     24.528947   20.551232   21.236171 C.3        1 MOL1         0.1018
      97    H46     25.391817   21.199898   21.034051 H          1 MOL1         0.0783
      98    C29     24.259598   19.680387   19.977188 C.3        1 MOL1         0.1043
      99    H47     23.243971   19.273732   20.035580 H          1 MOL1         0.0783
     100    O24     25.218658   18.596956   19.899335 O.3        1 MOL1        -0.3740
     101    C30     24.365654   20.502121   18.676479 C.3        1 MOL1         0.0138
     102    H48     25.400987   20.844412   18.545922 H          1 MOL1         0.0794
     103    H49     23.726530   21.391653   18.758032 H          1 MOL1         0.0794
     104    O25     23.953567   19.707532   17.562960 O.3        1 MOL1        -0.5486
     105    H50     24.479589   18.878518   17.609728 H          1 MOL1         0.3769
     106    C31     21.372574   14.080478   21.873401 C.3        1 MOL1         0.2972
     107    H51     20.906635   13.105316   22.063638 H          1 MOL1         0.0751
     108    O26     20.410639   15.046512   21.398307 O.3        1 MOL1        -0.3740
     109    C32     22.030662   14.614421   23.167968 C.3        1 MOL1         0.1003
     110    H52     22.805830   13.893307   23.458526 H          1 MOL1         0.0783
     111    O27     21.080261   14.733877   24.236167 O.3        1 MOL1        -0.5519
     112    H53     21.588481   15.148818   24.967578 H          1 MOL1         0.3769
     113    C33     22.720993   15.972815   22.916358 C.3        1 MOL1         0.1053
     114    H54     21.946801   16.718383   22.701897 H          1 MOL1         0.0783
     115    O28     23.444781   16.347361   24.093235 O.3        1 MOL1        -0.5519
     116    H55     24.188981   16.927011   23.801465 H          1 MOL1         0.3769
     117    C34     23.671317   15.921699   21.693563 C.3        1 MOL1         0.1018
     118    H56     24.609014   15.433027   21.990992 H          1 MOL1         0.0783
     119    C35     23.045135   15.191354   20.470983 C.3        1 MOL1         0.1043
     120    H57     22.291488   15.854784   20.027177 H          1 MOL1         0.0783
     121    O29     22.413840   13.952975   20.882179 O.3        1 MOL1        -0.3740
     122    C36     24.074274   14.855456   19.369086 C.3        1 MOL1         0.0138
     123    H58     24.484804   15.790633   18.965585 H          1 MOL1         0.0794
     124    H59     23.557092   14.343928   18.546294 H          1 MOL1         0.0794
     125    O30     25.128343   14.034413   19.880033 O.3        1 MOL1        -0.5486
     126    H60     24.697574   13.231969   20.250352 H          1 MOL1         0.3769
     127    C1      20.224368   19.547089   19.382965 C.3        1 MOL1        -0.2398
     128    H1      21.082487   19.395375   18.715048 H          1 MOL1         0.0972
     129    H2      19.343924   19.099664   18.902377 H          1 MOL1         0.0972
     130    H3      20.057439   20.627563   19.470438 H          1 MOL1         0.0972
     131    C2      20.490073   18.912237   20.763588 C.3        1 MOL1        -0.1383
     132    H4      21.369333   19.389989   21.209962 H          1 MOL1         0.0961
     133    H5      20.739447   17.850468   20.630446 H          1 MOL1         0.0961
     134    C3      19.277519   19.049159   21.713521 C.3        1 MOL1        -0.1407
     135    H6      19.055250   20.109587   21.893487 H          1 MOL1         0.0961
     136    H7      18.391595   18.630137   21.218421 H          1 MOL1         0.0961
     137    C4      19.488042   18.319678   23.062908 C.3        1 MOL1        -0.1407
     138    H8      19.779951   17.280077   22.869879 H          1 MOL1         0.0961
     139    H9      18.529090   18.275261   23.592818 H          1 MOL1         0.0961
     140    C5      20.536036   19.002791   23.977502 C.3        1 MOL1        -0.1472
     141    H10     21.466042   19.170386   23.421938 H          1 MOL1         0.0961
     142    H11     20.168323   19.991808   24.279766 H          1 MOL1         0.0961
     143    C6      20.873878   18.170085   25.230336 C.3        1 MOL1         0.1190
     144    H12     21.255784   17.200116   24.899838 H          1 MOL1         0.0923
     145    C7      21.974329   18.863294   26.048262 C.3        1 MOL1        -0.2463
     146    H13     22.259092   18.251061   26.912398 H          1 MOL1         0.0972
     147    H14     21.642070   19.842583   26.413933 H          1 MOL1         0.0972
     148    H15     22.874818   19.013300   25.438789 H          1 MOL1         0.0972
     149    N1      19.667411   17.890158   26.084128 N.4        1 MOL1        -0.5974
     150    H16     18.955699   17.371434   25.561824 H          1 MOL1         0.3625
     151    H17     19.914684   17.331288   26.905283 H          1 MOL1         0.3625
     152    H18     19.239552   18.758059   26.417087 H          1 MOL1         0.3625
@<TRIPOS>BOND
    1     1     2    1
    2     1     3    1
    3     1     4    1
    4     4     5    1
    5     4     6    1
    6     6     7    1
    7     4     8    1
    8     8     9    1
    9     8    10    1
   10    10    11    1
   11     8    12    1
   12    12    13    1
   13    12    14    1
   14    14    15    1
   15     1    16    1
   16    14    16    1
   17    14    17    1
   18    17    18    1
   19    17    19    1
   20    17    20    1
   21    20    21    1
   22    22    23    1
   23    22    24    1
   24    22    25    1
   25    25    26    1
   26    25    27    1
   27    27    28    1
   28    25    29    1
   29    29    30    1
   30    29    31    1
   31    31    32    1
   32     3    33    1
   33    29    33    1
   34    33    34    1
   35    33    35    1
   36    35    36    1
   37    22    37    1
   38    35    37    1
   39    35    38    1
   40    38    39    1
   41    38    40    1
   42    38    41    1
   43    41    42    1
   44    43    44    1
   45    43    45    1
   46    43    46    1
   47    46    47    1
   48    46    48    1
   49    48    49    1
   50    46    50    1
   51    50    51    1
   52    50    52    1
   53    52    53    1
   54    24    54    1
   55    50    54    1
   56    54    55    1
   57    54    56    1
   58    56    57    1
   59    43    58    1
   60    56    58    1
   61    56    59    1
   62    59    60    1
   63    59    61    1
   64    59    62    1
   65    62    63    1
   66    64    65    1
   67    64    66    1
   68    64    67    1
   69    67    68    1
   70    67    69    1
   71    69    70    1
   72    67    71    1
   73    71    72    1
   74    71    73    1
   75    73    74    1
   76    45    75    1
   77    71    75    1
   78    75    76    1
   79    75    77    1
   80    77    78    1
   81    64    79    1
   82    77    79    1
   83    77    80    1
   84    80    81    1
   85    80    82    1
   86    80    83    1
   87    83    84    1
   88    85    86    1
   89    85    87    1
   90    85    88    1
   91    88    89    1
   92    88    90    1
   93    90    91    1
   94    88    92    1
   95    92    93    1
   96    92    94    1
   97    94    95    1
   98    66    96    1
   99    92    96    1
  100    96    97    1
  101    96    98    1
  102    98    99    1
  103    85   100    1
  104    98   100    1
  105    98   101    1
  106   101   102    1
  107   101   103    1
  108   101   104    1
  109   104   105    1
  110   106   107    1
  111    12   108    1
  112   106   108    1
  113   106   109    1
  114   109   110    1
  115   109   111    1
  116   111   112    1
  117   109   113    1
  118   113   114    1
  119   113   115    1
  120   115   116    1
  121    87   117    1
  122   113   117    1
  123   117   118    1
  124   117   119    1
  125   119   120    1
  126   106   121    1
  127   119   121    1
  128   119   122    1
  129   122   123    1
  130   122   124    1
  131   122   125    1
  132   125   126    1
  133   127   128    1
  134   127   129    1
  135   127   130    1
  136   127   131    1
  137   131   132    1
  138   131   133    1
  139   131   134    1
  140   134   135    1
  141   134   136    1
  142   134   137    1
  143   137   138    1
  144   137   139    1
  145   137   140    1
  146   140   141    1
  147   140   142    1
  148   140   143    1
  149   143   144    1
  150   143   145    1
  151   145   146    1
  152   145   147    1
  153   145   148    1
  154   143   149    1
  155   149   150    1
  156   149   151    1
  157   149   152    1
@<TRIPOS>SUBSTRUCTURE
       1 MOL1            1 RESIDUE      1      MOL     
       2 MOL1          152 RESIDUE      1      MOL     
@<SCITEGIC>MOL_PROPERTY
VM2 Rank
SciTegic.value.IntegerValue
1

@<SCITEGIC>MOL_PROPERTY
Conf_Id
SciTegic.value.IntegerValue
36411

@<SCITEGIC>MOL_PROPERTY
Probability
SciTegic.value.DoubleValue
7.02

@<SCITEGIC>MOL_PROPERTY
Sum Probability
SciTegic.value.DoubleValue
7.02

@<SCITEGIC>MOL_PROPERTY
Delta G
SciTegic.value.DoubleValue
0.000

@<SCITEGIC>MOL_PROPERTY
G
SciTegic.value.DoubleValue
542.258

@<SCITEGIC>MOL_PROPERTY
E
SciTegic.value.DoubleValue
339.291

@<SCITEGIC>MOL_PROPERTY
-TS
SciTegic.value.DoubleValue
202.967

@<SCITEGIC>MOL_PROPERTY
U+W
SciTegic.value.DoubleValue
205.154

@<SCITEGIC>MOL_PROPERTY
U
SciTegic.value.DoubleValue
284.683

@<SCITEGIC>MOL_PROPERTY
W
SciTegic.value.DoubleValue
-79.506

@<SCITEGIC>MOL_PROPERTY
W(PB)
SciTegic.value.DoubleValue
-85.625

@<SCITEGIC>MOL_PROPERTY
W(SA)
SciTegic.value.DoubleValue
6.119

@<SCITEGIC>MOL_PROPERTY
Valence
SciTegic.value.DoubleValue
145.222

@<SCITEGIC>MOL_PROPERTY
Coulomb
SciTegic.value.DoubleValue
168.035

@<SCITEGIC>MOL_PROPERTY
VdW
SciTegic.value.DoubleValue
-28.575

@<SCITEGIC>MOL_PROPERTY
VdW6
SciTegic.value.DoubleValue
-180.668

@<SCITEGIC>MOL_PROPERTY
VdW12
SciTegic.value.DoubleValue
152.093

@<SCITEGIC>MOL_PROPERTY
Bond
SciTegic.value.DoubleValue
4.183

@<SCITEGIC>MOL_PROPERTY
Angle
SciTegic.value.DoubleValue
10.313

@<SCITEGIC>MOL_PROPERTY
Pdih
SciTegic.value.DoubleValue
130.726

@<SCITEGIC>MOL_PROPERTY
Idih
SciTegic.value.DoubleValue
0.000

@<SCITEGIC>MOL_PROPERTY
Tether
SciTegic.value.DoubleValue
0.000

@<TRIPOS>MOLECULE
CD_guest-s13_vm2_single.mol2 : vm2 host+ligand conformer 2
         152         157           2
SMALL
USER_CHARGES
 
@<TRIPOS>ATOM
       1    C1      16.148832   15.058542   20.600050 C.3        1 MOL1         0.2972
       2    H1      15.088612   14.941048   20.341078 H          1 MOL1         0.0751
       3    O1      16.466814   16.421878   20.953030 O.3        1 MOL1        -0.3740
       4    C2      16.550514   14.124047   21.768373 C.3        1 MOL1         0.1003
       5    H2      16.431782   13.090351   21.417896 H          1 MOL1         0.0783
       6    O2      15.726182   14.324071   22.922565 O.3        1 MOL1        -0.5519
       7    H3      16.124337   13.748910   23.614636 H          1 MOL1         0.3769
       8    C3      18.037140   14.335011   22.137342 C.3        1 MOL1         0.1053
       9    H4      18.144862   15.351708   22.538542 H          1 MOL1         0.0783
      10    O3      18.411207   13.383493   23.139978 O.3        1 MOL1        -0.5519
      11    H5      19.218031   13.753456   23.576487 H          1 MOL1         0.3769
      12    C4      18.957058   14.209117   20.889864 C.3        1 MOL1         0.1018
      13    H6      19.101830   13.148231   20.645961 H          1 MOL1         0.0783
      14    C5      18.394535   14.938217   19.635517 C.3        1 MOL1         0.1043
      15    H7      18.556718   16.015169   19.756543 H          1 MOL1         0.0783
      16    O4      16.975912   14.685915   19.478885 O.3        1 MOL1        -0.3740
      17    C6      19.099035   14.508825   18.329899 C.3        1 MOL1         0.0138
      18    H8      20.174901   14.710371   18.420529 H          1 MOL1         0.0794
      19    H9      18.716267   15.122682   17.503686 H          1 MOL1         0.0794
      20    O5      18.878166   13.121517   18.059677 O.3        1 MOL1        -0.5486
      21    H10     17.903289   12.993838   18.070990 H          1 MOL1         0.3769
      22    C7      14.919030   20.155345   21.709883 C.3        1 MOL1         0.2972
      23    H11     14.300686   21.034814   21.929874 H          1 MOL1         0.0751
      24    O6      16.255431   20.529820   21.312528 O.3        1 MOL1        -0.3740
      25    C8      14.998507   19.239111   22.954029 C.3        1 MOL1         0.1003
      26    H12     13.975223   18.913309   23.182208 H          1 MOL1         0.0783
      27    O7      15.531630   19.933415   24.090830 O.3        1 MOL1        -0.5519
      28    H13     15.604373   19.241929   24.785008 H          1 MOL1         0.3769
      29    C9      15.839724   17.978094   22.657876 C.3        1 MOL1         0.1053
      30    H14     16.880555   18.285557   22.505560 H          1 MOL1         0.0783
      31    O8      15.752710   17.092626   23.779230 O.3        1 MOL1        -0.5519
      32    H15     15.887941   16.177173   23.435000 H          1 MOL1         0.3769
      33    C10     15.371129   17.259934   21.367173 C.3        1 MOL1         0.1018
      34    H16     14.466920   16.678301   21.592334 H          1 MOL1         0.0783
      35    C11     15.101348   18.242444   20.191535 C.3        1 MOL1         0.1043
      36    H17     16.069810   18.587768   19.807125 H          1 MOL1         0.0783
      37    O9      14.328871   19.382650   20.643369 O.3        1 MOL1        -0.3740
      38    C12     14.340406   17.591107   19.015512 C.3        1 MOL1         0.0138
      39    H18     14.960125   16.792497   18.586337 H          1 MOL1         0.0794
      40    H19     14.189666   18.344859   18.231124 H          1 MOL1         0.0794
      41    O10     13.082403   17.062175   19.444352 O.3        1 MOL1        -0.5486
      42    H20     12.588827   17.813704   19.842122 H          1 MOL1         0.3769
      43    C13     18.546371   24.009178   20.987149 C.3        1 MOL1         0.2972
      44    H21     18.903251   25.020438   20.752860 H          1 MOL1         0.0751
      45    O11     19.615474   23.160290   21.444886 O.3        1 MOL1        -0.3740
      46    C14     17.448973   24.049247   22.082334 C.3        1 MOL1         0.1003
      47    H22     16.626804   24.669142   21.701679 H          1 MOL1         0.0783
      48    O12     17.944940   24.616997   23.302562 O.3        1 MOL1        -0.5519
      49    H23     17.212811   24.494862   23.948279 H          1 MOL1         0.3769
      50    C15     16.892348   22.632372   22.359550 C.3        1 MOL1         0.1053
      51    H24     17.696607   22.040977   22.815420 H          1 MOL1         0.0783
      52    O13     15.791453   22.729171   23.270618 O.3        1 MOL1        -0.5519
      53    H25     15.653667   21.819018   23.633649 H          1 MOL1         0.3769
      54    C16     16.461697   21.930452   21.041644 C.3        1 MOL1         0.1018
      55    H26     15.549535   22.400820   20.650407 H          1 MOL1         0.0783
      56    C17     17.564825   22.017591   19.956139 C.3        1 MOL1         0.1043
      57    H27     18.413745   21.391254   20.258031 H          1 MOL1         0.0783
      58    O14     17.976018   23.399093   19.809843 O.3        1 MOL1        -0.3740
      59    C18     17.068962   21.531087   18.578967 C.3        1 MOL1         0.0138
      60    H28     16.282357   22.206305   18.216458 H          1 MOL1         0.0794
      61    H29     16.628694   20.531276   18.682693 H          1 MOL1         0.0794
      62    O15     18.159342   21.486686   17.657109 O.3        1 MOL1        -0.5486
      63    H30     18.576161   22.375802   17.683942 H          1 MOL1         0.3769
      64    C19     23.646543   22.938042   22.031405 C.3        1 MOL1         0.2972
      65    H31     24.723688   23.057672   22.203965 H          1 MOL1         0.0751
      66    O16     23.306994   21.589402   21.647850 O.3        1 MOL1        -0.3740
      67    C20     22.854326   23.307630   23.308197 C.3        1 MOL1         0.1003
      68    H32     23.029721   24.371942   23.512440 H          1 MOL1         0.0783
      69    O17     23.284504   22.531409   24.434412 O.3        1 MOL1        -0.5519
      70    H33     22.608759   22.706982   25.127451 H          1 MOL1         0.3769
      71    C21     21.341643   23.106350   23.075249 C.3        1 MOL1         0.1053
      72    H34     21.168052   22.031647   22.953427 H          1 MOL1         0.0783
      73    O18     20.606403   23.590266   24.205367 O.3        1 MOL1        -0.5519
      74    H35     19.686676   23.767639   23.889551 H          1 MOL1         0.3769
      75    C22     20.849928   23.815338   21.788715 C.3        1 MOL1         0.1018
      76    H36     20.703072   24.880730   22.012055 H          1 MOL1         0.0783
      77    C23     21.811285   23.645169   20.574801 C.3        1 MOL1         0.1043
      78    H37     21.675040   22.632286   20.173023 H          1 MOL1         0.0783
      79    O19     23.192459   23.820440   20.983936 O.3        1 MOL1        -0.3740
      80    C24     21.532919   24.636918   19.423560 C.3        1 MOL1         0.0138
      81    H38     20.535817   24.437044   19.009961 H          1 MOL1         0.0794
      82    H39     22.259851   24.457884   18.619988 H          1 MOL1         0.0794
      83    O20     21.617249   25.991127   19.876251 O.3        1 MOL1        -0.5486
      84    H40     22.519701   26.101286   20.250477 H          1 MOL1         0.3769
      85    C25     24.895612   17.837020   20.936179 C.3        1 MOL1         0.2972
      86    H41     25.523981   16.983470   20.651120 H          1 MOL1         0.0751
      87    O21     23.535736   17.426747   21.193568 O.3        1 MOL1        -0.3740
      88    C26     25.474233   18.558944   22.183416 C.3        1 MOL1         0.1003
      89    H42     26.478591   18.912328   21.915667 H          1 MOL1         0.0783
      90    O22     25.574090   17.684760   23.314566 O.3        1 MOL1        -0.5519
      91    H43     25.873963   18.263192   24.051940 H          1 MOL1         0.3769
      92    C27     24.621098   19.794770   22.552652 C.3        1 MOL1         0.1053
      93    H44     23.638897   19.440108   22.894585 H          1 MOL1         0.0783
      94    O23     25.265772   20.523368   23.603947 O.3        1 MOL1        -0.5519
      95    H45     24.609675   21.190337   23.926808 H          1 MOL1         0.3769
      96    C28     24.400951   20.714797   21.324275 C.3        1 MOL1         0.1018
      97    H46     25.322234   21.270036   21.102470 H          1 MOL1         0.0783
      98    C29     23.973301   19.927704   20.059356 C.3        1 MOL1         0.1043
      99    H47     22.940871   19.584222   20.193889 H          1 MOL1         0.0783
     100    O24     24.863219   18.801362   19.863598 O.3        1 MOL1        -0.3740
     101    C30     24.032802   20.795396   18.785654 C.3        1 MOL1         0.0138
     102    H48     25.076941   21.065754   18.578796 H          1 MOL1         0.0794
     103    H49     23.474307   21.725548   18.951277 H          1 MOL1         0.0794
     104    O25     23.470189   20.080452   17.684290 O.3        1 MOL1        -0.5486
     105    H50     23.934804   19.215004   17.654438 H          1 MOL1         0.3769
     106    C31     21.226668   14.030779   21.800514 C.3        1 MOL1         0.2972
     107    H51     20.850822   13.025191   22.028155 H          1 MOL1         0.0751
     108    O26     20.209528   14.855772   21.194552 O.3        1 MOL1        -0.3740
     109    C32     21.744629   14.716972   23.090221 C.3        1 MOL1         0.1003
     110    H52     22.571400   14.105027   23.473982 H          1 MOL1         0.0783
     111    O27     20.730493   14.810948   24.098417 O.3        1 MOL1        -0.5519
     112    H53     21.120739   15.408447   24.774578 H          1 MOL1         0.3769
     113    C33     22.304618   16.121512   22.777882 C.3        1 MOL1         0.1053
     114    H54     21.475226   16.755086   22.440725 H          1 MOL1         0.0783
     115    O28     22.889369   16.667703   23.965977 O.3        1 MOL1        -0.5519
     116    H55     23.700512   17.154682   23.684276 H          1 MOL1         0.3769
     117    C34     23.353758   16.068574   21.641290 C.3        1 MOL1         0.1018
     118    H56     24.283502   15.641503   22.041151 H          1 MOL1         0.0783
     119    C35     22.863559   15.228998   20.426049 C.3        1 MOL1         0.1043
     120    H57     22.071547   15.791395   19.914443 H          1 MOL1         0.0783
     121    O29     22.338088   13.956053   20.881326 O.3        1 MOL1        -0.3740
     122    C36     23.969887   14.935435   19.388410 C.3        1 MOL1         0.0138
     123    H58     24.291974   15.880188   18.930954 H          1 MOL1         0.0794
     124    H59     23.546727   14.314044   18.587744 H          1 MOL1         0.0794
     125    O30     25.085160   14.274324   19.992818 O.3        1 MOL1        -0.5486
     126    H60     24.732076   13.449731   20.395099 H          1 MOL1         0.3769
     127    C1      20.312355   18.567422   19.367918 C.3        1 MOL1        -0.2398
     128    H1      19.774006   17.961160   18.628748 H          1 MOL1         0.0972
     129    H2      20.401133   19.584919   18.963657 H          1 MOL1         0.0972
     130    H3      21.321318   18.149984   19.473218 H          1 MOL1         0.0972
     131    C2      19.568002   18.567393   20.719059 C.3        1 MOL1        -0.1383
     132    H4      19.511932   17.539280   21.094792 H          1 MOL1         0.0961
     133    H5      18.534044   18.904076   20.561769 H          1 MOL1         0.0961
     134    C3      20.258755   19.475439   21.763133 C.3        1 MOL1        -0.1407
     135    H6      21.277274   19.116388   21.963131 H          1 MOL1         0.0961
     136    H7      20.367014   20.482191   21.338474 H          1 MOL1         0.0961
     137    C4      19.466970   19.576039   23.089721 C.3        1 MOL1        -0.1407
     138    H8      18.431110   19.863932   22.871883 H          1 MOL1         0.0961
     139    H9      19.890733   20.388835   23.691704 H          1 MOL1         0.0961
     140    C5      19.490175   18.269676   23.922831 C.3        1 MOL1        -0.1472
     141    H10     19.191707   17.420469   23.297152 H          1 MOL1         0.0961
     142    H11     20.515790   18.067926   24.257477 H          1 MOL1         0.0961
     143    C6      18.547490   18.317532   25.141879 C.3        1 MOL1         0.1190
     144    H12     17.532127   18.497790   24.778051 H          1 MOL1         0.0923
     145    C7      18.559302   16.968086   25.876294 C.3        1 MOL1        -0.2463
     146    H13     17.849994   16.975565   26.712635 H          1 MOL1         0.0972
     147    H14     19.556248   16.738257   26.271738 H          1 MOL1         0.0972
     148    H15     18.263857   16.155535   25.200025 H          1 MOL1         0.0972
     149    N1      18.873967   19.443484   26.084482 N.4        1 MOL1        -0.5974
     150    H16     18.805030   20.351229   25.615797 H          1 MOL1         0.3625
     151    H17     18.231852   19.459152   26.881484 H          1 MOL1         0.3625
     152    H18     19.824225   19.354106   26.453527 H          1 MOL1         0.3625
@<TRIPOS>BOND
    1     1     2    1
    2     1     3    1
    3     1     4    1
    4     4     5    1
    5     4     6    1
    6     6     7    1
    7     4     8    1
    8     8     9    1
    9     8    10    1
   10    10    11    1
   11     8    12    1
   12    12    13    1
   13    12    14    1
   14    14    15    1
   15     1    16    1
   16    14    16    1
   17    14    17    1
   18    17    18    1
   19    17    19    1
   20    17    20    1
   21    20    21    1
   22    22    23    1
   23    22    24    1
   24    22    25    1
   25    25    26    1
   26    25    27    1
   27    27    28    1
   28    25    29    1
   29    29    30    1
   30    29    31    1
   31    31    32    1
   32     3    33    1
   33    29    33    1
   34    33    34    1
   35    33    35    1
   36    35    36    1
   37    22    37    1
   38    35    37    1
   39    35    38    1
   40    38    39    1
   41    38    40    1
   42    38    41    1
   43    41    42    1
   44    43    44    1
   45    43    45    1
   46    43    46    1
   47    46    47    1
   48    46    48    1
   49    48    49    1
   50    46    50    1
   51    50    51    1
   52    50    52    1
   53    52    53    1
   54    24    54    1
   55    50    54    1
   56    54    55    1
   57    54    56    1
   58    56    57    1
   59    43    58    1
   60    56    58    1
   61    56    59    1
   62    59    60    1
   63    59    61    1
   64    59    62    1
   65    62    63    1
   66    64    65    1
   67    64    66    1
   68    64    67    1
   69    67    68    1
   70    67    69    1
   71    69    70    1
   72    67    71    1
   73    71    72    1
   74    71    73    1
   75    73    74    1
   76    45    75    1
   77    71    75    1
   78    75    76    1
   79    75    77    1
   80    77    78    1
   81    64    79    1
   82    77    79    1
   83    77    80    1
   84    80    81    1
   85    80    82    1
   86    80    83    1
   87    83    84    1
   88    85    86    1
   89    85    87    1
   90    85    88    1
   91    88    89    1
   92    88    90    1
   93    90    91    1
   94    88    92    1
   95    92    93    1
   96    92    94    1
   97    94    95    1
   98    66    96    1
   99    92    96    1
  100    96    97    1
  101    96    98    1
  102    98    99    1
  103    85   100    1
  104    98   100    1
  105    98   101    1
  106   101   102    1
  107   101   103    1
  108   101   104    1
  109   104   105    1
  110   106   107    1
  111    12   108    1
  112   106   108    1
  113   106   109    1
  114   109   110    1
  115   109   111    1
  116   111   112    1
  117   109   113    1
  118   113   114    1
  119   113   115    1
  120   115   116    1
  121    87   117    1
  122   113   117    1
  123   117   118    1
  124   117   119    1
  125   119   120    1
  126   106   121    1
  127   119   121    1
  128   119   122    1
  129   122   123    1
  130   122   124    1
  131   122   125    1
  132   125   126    1
  133   127   128    1
  134   127   129    1
  135   127   130    1
  136   127   131    1
  137   131   132    1
  138   131   133    1
  139   131   134    1
  140   134   135    1
  141   134   136    1
  142   134   137    1
  143   137   138    1
  144   137   139    1
  145   137   140    1
  146   140   141    1
  147   140   142    1
  148   140   143    1
  149   143   144    1
  150   143   145    1
  151   145   146    1
  152   145   147    1
  153   145   148    1
  154   143   149    1
  155   149   150    1
  156   149   151    1
  157   149   152    1
@<TRIPOS>SUBSTRUCTURE
       1 MOL1            1 RESIDUE      1      MOL     
       2 MOL1          152 RESIDUE      1      MOL     
@<SCITEGIC>MOL_PROPERTY
VM2 Rank
SciTegic.value.IntegerValue
2

@<SCITEGIC>MOL_PROPERTY
Conf_Id
SciTegic.value.IntegerValue
25919

@<SCITEGIC>MOL_PROPERTY
Probability
SciTegic.value.DoubleValue
4.52

@<SCITEGIC>MOL_PROPERTY
Sum Probability
SciTegic.value.DoubleValue
11.54

@<SCITEGIC>MOL_PROPERTY
Delta G
SciTegic.value.DoubleValue
0.262

@<SCITEGIC>MOL_PROPERTY
G
SciTegic.value.DoubleValue
542.520

@<SCITEGIC>MOL_PROPERTY
E
SciTegic.value.DoubleValue
339.412

@<SCITEGIC>MOL_PROPERTY
-TS
SciTegic.value.DoubleValue
203.107

@<SCITEGIC>MOL_PROPERTY
U+W
SciTegic.value.DoubleValue
205.276

@<SCITEGIC>MOL_PROPERTY
U
SciTegic.value.DoubleValue
285.030

@<SCITEGIC>MOL_PROPERTY
W
SciTegic.value.DoubleValue
-79.754

@<SCITEGIC>MOL_PROPERTY
W(PB)
SciTegic.value.DoubleValue
-85.877

@<SCITEGIC>MOL_PROPERTY
W(SA)
SciTegic.value.DoubleValue
6.123

@<SCITEGIC>MOL_PROPERTY
Valence
SciTegic.value.DoubleValue
145.105

@<SCITEGIC>MOL_PROPERTY
Coulomb
SciTegic.value.DoubleValue
168.139

@<SCITEGIC>MOL_PROPERTY
VdW
SciTegic.value.DoubleValue
-28.214

@<SCITEGIC>MOL_PROPERTY
VdW6
SciTegic.value.DoubleValue
-180.863

@<SCITEGIC>MOL_PROPERTY
VdW12
SciTegic.value.DoubleValue
152.649

@<SCITEGIC>MOL_PROPERTY
Bond
SciTegic.value.DoubleValue
4.215

@<SCITEGIC>MOL_PROPERTY
Angle
SciTegic.value.DoubleValue
10.418

@<SCITEGIC>MOL_PROPERTY
Pdih
SciTegic.value.DoubleValue
130.472

@<SCITEGIC>MOL_PROPERTY
Idih
SciTegic.value.DoubleValue
0.000

@<SCITEGIC>MOL_PROPERTY
Tether
SciTegic.value.DoubleValue
0.000

@<TRIPOS>MOLECULE
CD_guest-s13_vm2_single.mol2 : vm2 host+ligand conformer 3
         152         157           2
SMALL
USER_CHARGES
 
@<TRIPOS>ATOM
       1    C1      16.281633   15.286873   20.775370 C.3        1 MOL1         0.2972
       2    H1      15.246531   15.088918   20.468594 H          1 MOL1         0.0751
       3    O1      16.449761   16.638650   21.241067 O.3        1 MOL1        -0.3740
       4    C2      16.715590   14.323300   21.910306 C.3        1 MOL1         0.1003
       5    H2      16.614098   13.298831   21.529174 H          1 MOL1         0.0783
       6    O2      15.892721   14.480243   23.074838 O.3        1 MOL1        -0.5519
       7    H3      16.317832   13.913171   23.757083 H          1 MOL1         0.3769
       8    C3      18.198278   14.548838   22.291241 C.3        1 MOL1         0.1053
       9    H4      18.277389   15.542619   22.750031 H          1 MOL1         0.0783
      10    O3      18.597846   13.550023   23.236784 O.3        1 MOL1        -0.5519
      11    H5      19.426896   13.886833   23.659134 H          1 MOL1         0.3769
      12    C4      19.112859   14.520780   21.035070 C.3        1 MOL1         0.1018
      13    H6      19.189433   13.493658   20.653639 H          1 MOL1         0.0783
      14    C5      18.564455   15.426495   19.902873 C.3        1 MOL1         0.1043
      15    H7      18.661178   16.476622   20.206051 H          1 MOL1         0.0783
      16    O4      17.176289   15.090978   19.659680 O.3        1 MOL1        -0.3740
      17    C6      19.329080   15.232195   18.577498 C.3        1 MOL1         0.0138
      18    H8      19.173584   14.207284   18.214955 H          1 MOL1         0.0794
      19    H9      20.404068   15.364297   18.754439 H          1 MOL1         0.0794
      20    O5      18.876533   16.182162   17.611397 O.3        1 MOL1        -0.5486
      21    H10     17.899466   16.088640   17.574160 H          1 MOL1         0.3769
      22    C7      14.576387   20.248837   21.617067 C.3        1 MOL1         0.2972
      23    H11     13.915457   21.118589   21.721684 H          1 MOL1         0.0751
      24    O6      15.941439   20.635763   21.356322 O.3        1 MOL1        -0.3740
      25    C8      14.540292   19.390846   22.904280 C.3        1 MOL1         0.1003
      26    H12     13.518647   19.005729   23.019399 H          1 MOL1         0.0783
      27    O7      14.889306   20.166015   24.059160 O.3        1 MOL1        -0.5519
      28    H13     15.017210   19.501068   24.772800 H          1 MOL1         0.3769
      29    C9      15.495599   18.185983   22.768896 C.3        1 MOL1         0.1053
      30    H14     16.517536   18.578566   22.729135 H          1 MOL1         0.0783
      31    O8      15.353261   17.319505   23.900977 O.3        1 MOL1        -0.5519
      32    H15     15.690792   16.433240   23.622113 H          1 MOL1         0.3769
      33    C10     15.242106   17.388690   21.466049 C.3        1 MOL1         0.1018
      34    H16     14.373119   16.735783   21.623802 H          1 MOL1         0.0783
      35    C11     15.020785   18.290477   20.215396 C.3        1 MOL1         0.1043
      36    H17     15.998813   18.682464   19.906567 H          1 MOL1         0.0783
      37    O9      14.144494   19.403453   20.531098 O.3        1 MOL1        -0.3740
      38    C12     14.433710   17.535928   18.998586 C.3        1 MOL1         0.0138
      39    H18     15.209706   16.874845   18.590103 H          1 MOL1         0.0794
      40    H19     14.187789   18.268653   18.218300 H          1 MOL1         0.0794
      41    O10     13.273961   16.768734   19.345070 O.3        1 MOL1        -0.5486
      42    H20     12.912264   16.384548   18.516655 H          1 MOL1         0.3769
      43    C13     18.436547   23.884286   20.797919 C.3        1 MOL1         0.2972
      44    H21     18.881985   24.852969   20.537348 H          1 MOL1         0.0751
      45    O11     19.449391   22.913804   21.138935 O.3        1 MOL1        -0.3740
      46    C14     17.432481   24.034040   21.973077 C.3        1 MOL1         0.1003
      47    H22     16.645486   24.723483   21.640495 H          1 MOL1         0.0783
      48    O12     18.053827   24.568391   23.148662 O.3        1 MOL1        -0.5519
      49    H23     17.350510   24.543903   23.836402 H          1 MOL1         0.3769
      50    C15     16.764990   22.679265   22.305213 C.3        1 MOL1         0.1053
      51    H24     17.536775   22.010031   22.710059 H          1 MOL1         0.0783
      52    O13     15.736430   22.878875   23.281955 O.3        1 MOL1        -0.5519
      53    H25     15.455641   21.978734   23.582800 H          1 MOL1         0.3769
      54    C16     16.170837   22.017798   21.035380 C.3        1 MOL1         0.1018
      55    H26     15.246594   22.533862   20.742631 H          1 MOL1         0.0783
      56    C17     17.154771   22.032965   19.837906 C.3        1 MOL1         0.1043
      57    H27     17.956527   21.311731   20.035167 H          1 MOL1         0.0783
      58    O14     17.698393   23.365646   19.671915 O.3        1 MOL1        -0.3740
      59    C18     16.466253   21.641716   18.514392 C.3        1 MOL1         0.0138
      60    H28     15.726268   22.408720   18.249388 H          1 MOL1         0.0794
      61    H29     15.929987   20.693513   18.648453 H          1 MOL1         0.0794
      62    O15     17.442484   21.505629   17.480483 O.3        1 MOL1        -0.5486
      63    H30     17.962006   22.339802   17.483563 H          1 MOL1         0.3769
      64    C19     23.488574   22.617403   22.053596 C.3        1 MOL1         0.2972
      65    H31     24.527573   22.796226   22.358169 H          1 MOL1         0.0751
      66    O16     23.326426   21.318984   21.446407 O.3        1 MOL1        -0.3740
      67    C20     22.540956   22.734924   23.274433 C.3        1 MOL1         0.1003
      68    H32     22.628754   23.760403   23.656512 H          1 MOL1         0.0783
      69    O17     22.890089   21.818740   24.319722 O.3        1 MOL1        -0.5519
      70    H33     22.128794   21.863034   24.940212 H          1 MOL1         0.3769
      71    C21     21.072169   22.513844   22.852702 C.3        1 MOL1         0.1053
      72    H34     20.963293   21.475699   22.515926 H          1 MOL1         0.0783
      73    O18     20.220041   22.757372   23.977992 O.3        1 MOL1        -0.5519
      74    H35     19.416638   23.214242   23.631206 H          1 MOL1         0.3769
      75    C22     20.680699   23.438310   21.674732 C.3        1 MOL1         0.1018
      76    H36     20.557925   24.460999   22.056493 H          1 MOL1         0.0783
      77    C23     21.740629   23.420583   20.535153 C.3        1 MOL1         0.1043
      78    H37     21.686261   22.448203   20.028075 H          1 MOL1         0.0783
      79    O19     23.069148   23.606386   21.088252 O.3        1 MOL1        -0.3740
      80    C24     21.519987   24.514529   19.466791 C.3        1 MOL1         0.0138
      81    H38     20.576123   24.317301   18.941609 H          1 MOL1         0.0794
      82    H39     22.325488   24.449288   18.723097 H          1 MOL1         0.0794
      83    O20     21.493578   25.817302   20.056941 O.3        1 MOL1        -0.5486
      84    H40     22.352286   25.926734   20.522854 H          1 MOL1         0.3769
      85    C25     25.230227   17.698658   21.025315 C.3        1 MOL1         0.2972
      86    H41     25.884606   16.842028   20.818216 H          1 MOL1         0.0751
      87    O21     23.871246   17.286515   21.285355 O.3        1 MOL1        -0.3740
      88    C26     25.746504   18.525770   22.228966 C.3        1 MOL1         0.1003
      89    H42     26.723955   18.939234   21.947802 H          1 MOL1         0.0783
      90    O22     25.899383   17.723267   23.405558 O.3        1 MOL1        -0.5519
      91    H43     26.146412   18.362107   24.111976 H          1 MOL1         0.3769
      92    C27     24.792219   19.708449   22.515723 C.3        1 MOL1         0.1053
      93    H44     23.833589   19.294597   22.856491 H          1 MOL1         0.0783
      94    O23     25.355277   20.525361   23.548073 O.3        1 MOL1        -0.5519
      95    H45     24.600158   21.038056   23.929445 H          1 MOL1         0.3769
      96    C28     24.526409   20.549320   21.234615 C.3        1 MOL1         0.1018
      97    H46     25.389803   21.197293   21.032508 H          1 MOL1         0.0783
      98    C29     24.255454   19.679748   19.975102 C.3        1 MOL1         0.1043
      99    H47     23.239671   19.273556   20.034023 H          1 MOL1         0.0783
     100    O24     25.213904   18.595908   19.895501 O.3        1 MOL1        -0.3740
     101    C30     24.360861   20.502558   18.675018 C.3        1 MOL1         0.0138
     102    H48     25.396275   20.844387   18.543888 H          1 MOL1         0.0794
     103    H49     23.722304   21.392373   18.757877 H          1 MOL1         0.0794
     104    O25     23.947394   19.709175   17.561151 O.3        1 MOL1        -0.5486
     105    H50     24.473048   18.879863   17.606710 H          1 MOL1         0.3769
     106    C31     21.368794   14.077701   21.868148 C.3        1 MOL1         0.2972
     107    H51     20.903046   13.102261   22.057387 H          1 MOL1         0.0751
     108    O26     20.406428   15.044644   21.395844 O.3        1 MOL1        -0.3740
     109    C32     22.028816   14.609795   23.162542 C.3        1 MOL1         0.1003
     110    H52     22.804803   13.888572   23.450637 H          1 MOL1         0.0783
     111    O27     21.080389   14.727325   24.232685 O.3        1 MOL1        -0.5519
     112    H53     21.589578   15.142509   24.963314 H          1 MOL1         0.3769
     113    C33     22.718104   15.968865   22.911795 C.3        1 MOL1         0.1053
     114    H54     21.943281   16.714312   22.699014 H          1 MOL1         0.0783
     115    O28     23.442937   16.342365   24.088359 O.3        1 MOL1        -0.5519
     116    H55     24.186752   16.922452   23.796478 H          1 MOL1         0.3769
     117    C34     23.667117   15.919346   21.687920 C.3        1 MOL1         0.1018
     118    H56     24.604990   15.430007   21.983696 H          1 MOL1         0.0783
     119    C35     23.039438   15.190728   20.465062 C.3        1 MOL1         0.1043
     120    H57     22.285173   15.854713   20.023114 H          1 MOL1         0.0783
     121    O29     22.408742   13.951717   20.875326 O.3        1 MOL1        -0.3740
     122    C36     24.067247   14.856441   19.361430 C.3        1 MOL1         0.0138
     123    H58     24.477200   15.792216   18.958726 H          1 MOL1         0.0794
     124    H59     23.549097   14.346014   18.538564 H          1 MOL1         0.0794
     125    O30     25.122024   14.034784   19.869931 O.3        1 MOL1        -0.5486
     126    H60     24.691796   13.231751   20.239600 H          1 MOL1         0.3769
     127    C1      20.218367   19.555357   19.379309 C.3        1 MOL1        -0.2398
     128    H1      21.075903   19.403723   18.710620 H          1 MOL1         0.0972
     129    H2      19.336963   19.110300   18.898276 H          1 MOL1         0.0972
     130    H3      20.053216   20.635901   19.469139 H          1 MOL1         0.0972
     131    C2      20.483894   18.917166   20.758409 C.3        1 MOL1        -0.1383
     132    H4      21.363957   19.392868   21.205386 H          1 MOL1         0.0961
     133    H5      20.731964   17.855386   20.622798 H          1 MOL1         0.0961
     134    C3      19.272108   19.053425   21.709466 C.3        1 MOL1        -0.1407
     135    H6      19.051397   20.113685   21.892313 H          1 MOL1         0.0961
     136    H7      18.385061   18.636822   21.214297 H          1 MOL1         0.0961
     137    C4      19.482981   18.320240   23.056717 C.3        1 MOL1        -0.1407
     138    H8      19.774953   17.281229   22.860643 H          1 MOL1         0.0961
     139    H9      18.524086   18.274250   23.586614 H          1 MOL1         0.0961
     140    C5      20.531382   19.000880   23.972702 C.3        1 MOL1        -0.1472
     141    H10     21.461283   19.169496   23.417246 H          1 MOL1         0.0961
     142    H11     20.164108   19.989345   24.277371 H          1 MOL1         0.0961
     143    C6      20.869320   18.165036   25.223433 C.3        1 MOL1         0.1190
     144    H12     21.250695   17.195677   24.890521 H          1 MOL1         0.0923
     145    C7      21.970342   18.855844   26.042620 C.3        1 MOL1        -0.2463
     146    H13     22.255119   18.241456   26.905222 H          1 MOL1         0.0972
     147    H14     21.638640   19.834423   26.410691 H          1 MOL1         0.0972
     148    H15     22.870704   19.006882   25.433216 H          1 MOL1         0.0972
     149    N1      19.663052   17.883571   26.076996 N.4        1 MOL1        -0.5974
     150    H16     18.950927   17.366397   25.553739 H          1 MOL1         0.3625
     151    H17     19.910415   17.322611   26.896700 H          1 MOL1         0.3625
     152    H18     19.235683   18.750842   26.412221 H          1 MOL1         0.3625
@<TRIPOS>BOND
    1     1     2    1
    2     1     3    1
    3     1     4    1
    4     4     5    1
    5     4     6    1
    6     6     7    1
    7     4     8    1
    8     8     9    1
    9     8    10    1
   10    10    11    1
   11     8    12    1
   12    12    13    1
   13    12    14    1
   14    14    15    1
   15     1    16    1
   16    14    16    1
   17    14    17    1
   18    17    18    1
   19    17    19    1
   20    17    20    1
   21    20    21    1
   22    22    23    1
   23    22    24    1
   24    22    25    1
   25    25    26    1
   26    25    27    1
   27    27    28    1
   28    25    29    1
   29    29    30    1
   30    29    31    1
   31    31    32    1
   32     3    33    1
   33    29    33    1
   34    33    34    1
   35    33    35    1
   36    35    36    1
   37    22    37    1
   38    35    37    1
   39    35    38    1
   40    38    39    1
   41    38    40    1
   42    38    41    1
   43    41    42    1
   44    43    44    1
   45    43    45    1
   46    43    46    1
   47    46    47    1
   48    46    48    1
   49    48    49    1
   50    46    50    1
   51    50    51    1
   52    50    52    1
   53    52    53    1
   54    24    54    1
   55    50    54    1
   56    54    55    1
   57    54    56    1
   58    56    57    1
   59    43    58    1
   60    56    58    1
   61    56    59    1
   62    59    60    1
   63    59    61    1
   64    59    62    1
   65    62    63    1
   66    64    65    1
   67    64    66    1
   68    64    67    1
   69    67    68    1
   70    67    69    1
   71    69    70    1
   72    67    71    1
   73    71    72    1
   74    71    73    1
   75    73    74    1
   76    45    75    1
   77    71    75    1
   78    75    76    1
   79    75    77    1
   80    77    78    1
   81    64    79    1
   82    77    79    1
   83    77    80    1
   84    80    81    1
   85    80    82    1
   86    80    83    1
   87    83    84    1
   88    85    86    1
   89    85    87    1
   90    85    88    1
   91    88    89    1
   92    88    90    1
   93    90    91    1
   94    88    92    1
   95    92    93    1
   96    92    94    1
   97    94    95    1
   98    66    96    1
   99    92    96    1
  100    96    97    1
  101    96    98    1
  102    98    99    1
  103    85   100    1
  104    98   100    1
  105    98   101    1
  106   101   102    1
  107   101   103    1
  108   101   104    1
  109   104   105    1
  110   106   107    1
  111    12   108    1
  112   106   108    1
  113   106   109    1
  114   109   110    1
  115   109   111    1
  116   111   112    1
  117   109   113    1
  118   113   114    1
  119   113   115    1
  120   115   116    1
  121    87   117    1
  122   113   117    1
  123   117   118    1
  124   117   119    1
  125   119   120    1
  126   106   121    1
  127   119   121    1
  128   119   122    1
  129   122   123    1
  130   122   124    1
  131   122   125    1
  132   125   126    1
  133   127   128    1
  134   127   129    1
  135   127   130    1
  136   127   131    1
  137   131   132    1
  138   131   133    1
  139   131   134    1
  140   134   135    1
  141   134   136    1
  142   134   137    1
  143   137   138    1
  144   137   139    1
  145   137   140    1
  146   140   141    1
  147   140   142    1
  148   140   143    1
  149   143   144    1
  150   143   145    1
  151   145   146    1
  152   145   147    1
  153   145   148    1
  154   143   149    1
  155   149   150    1
  156   149   151    1
  157   149   152    1
@<TRIPOS>SUBSTRUCTURE
       1 MOL1            1 RESIDUE      1      MOL     
       2 MOL1          152 RESIDUE      1      MOL     
@<SCITEGIC>MOL_PROPERTY
VM2 Rank
SciTegic.value.IntegerValue
3

@<SCITEGIC>MOL_PROPERTY
Conf_Id
SciTegic.value.IntegerValue
31192

@<SCITEGIC>MOL_PROPERTY
Probability
SciTegic.value.DoubleValue
3.38

@<SCITEGIC>MOL_PROPERTY
Sum Probability
SciTegic.value.DoubleValue
14.92

@<SCITEGIC>MOL_PROPERTY
Delta G
SciTegic.value.DoubleValue
0.436

@<SCITEGIC>MOL_PROPERTY
G
SciTegic.value.DoubleValue
542.694

@<SCITEGIC>MOL_PROPERTY
E
SciTegic.value.DoubleValue
339.855

@<SCITEGIC>MOL_PROPERTY
-TS
SciTegic.value.DoubleValue
202.839

@<SCITEGIC>MOL_PROPERTY
U+W
SciTegic.value.DoubleValue
205.718

@<SCITEGIC>MOL_PROPERTY
U
SciTegic.value.DoubleValue
285.568

@<SCITEGIC>MOL_PROPERTY
W
SciTegic.value.DoubleValue
-79.850

@<SCITEGIC>MOL_PROPERTY
W(PB)
SciTegic.value.DoubleValue
-85.987

@<SCITEGIC>MOL_PROPERTY
W(SA)
SciTegic.value.DoubleValue
6.137

@<SCITEGIC>MOL_PROPERTY
Valence
SciTegic.value.DoubleValue
144.946

@<SCITEGIC>MOL_PROPERTY
Coulomb
SciTegic.value.DoubleValue
169.213

@<SCITEGIC>MOL_PROPERTY
VdW
SciTegic.value.DoubleValue
-28.591

@<SCITEGIC>MOL_PROPERTY
VdW6
SciTegic.value.DoubleValue
-180.649

@<SCITEGIC>MOL_PROPERTY
VdW12
SciTegic.value.DoubleValue
152.058

@<SCITEGIC>MOL_PROPERTY
Bond
SciTegic.value.DoubleValue
4.196

@<SCITEGIC>MOL_PROPERTY
Angle
SciTegic.value.DoubleValue
10.444

@<SCITEGIC>MOL_PROPERTY
Pdih
SciTegic.value.DoubleValue
130.306

@<SCITEGIC>MOL_PROPERTY
Idih
SciTegic.value.DoubleValue
0.000

@<SCITEGIC>MOL_PROPERTY
Tether
SciTegic.value.DoubleValue
0.000

@<TRIPOS>MOLECULE
CD_guest-s13_vm2_single.mol2 : vm2 host+ligand conformer 4
         152         157           2
SMALL
USER_CHARGES
 
@<TRIPOS>ATOM
       1    C1      16.153672   15.012821   20.655286 C.3        1 MOL1         0.2972
       2    H1      15.095278   14.887133   20.392760 H          1 MOL1         0.0751
       3    O1      16.463455   16.380297   20.999233 O.3        1 MOL1        -0.3740
       4    C2      16.556732   14.091496   21.833507 C.3        1 MOL1         0.1003
       5    H2      16.440004   13.054092   21.493530 H          1 MOL1         0.0783
       6    O2      15.731904   14.301387   22.985614 O.3        1 MOL1        -0.5519
       7    H3      16.128998   13.731904   23.682882 H          1 MOL1         0.3769
       8    C3      18.043164   14.309498   22.200353 C.3        1 MOL1         0.1053
       9    H4      18.147468   15.327775   22.598576 H          1 MOL1         0.0783
      10    O3      18.422304   13.361510   23.204209 O.3        1 MOL1        -0.5519
      11    H5      19.227726   13.735754   23.639851 H          1 MOL1         0.3769
      12    C4      18.962198   14.183343   20.952058 C.3        1 MOL1         0.1018
      13    H6      19.101883   13.123055   20.702128 H          1 MOL1         0.0783
      14    C5      18.402576   14.916166   19.700822 C.3        1 MOL1         0.1043
      15    H7      18.555025   15.994351   19.821079 H          1 MOL1         0.0783
      16    O4      16.990033   14.634599   19.542032 O.3        1 MOL1        -0.3740
      17    C6      19.121880   14.478299   18.408842 C.3        1 MOL1         0.0138
      18    H8      18.907362   13.418931   18.214313 H          1 MOL1         0.0794
      19    H9      20.206729   14.580493   18.547035 H          1 MOL1         0.0794
      20    O5      18.692558   15.288637   17.313327 O.3        1 MOL1        -0.5486
      21    H10     17.710487   15.247511   17.311875 H          1 MOL1         0.3769
      22    C7      14.912164   20.119643   21.708370 C.3        1 MOL1         0.2972
      23    H11     14.293105   21.001403   21.916918 H          1 MOL1         0.0751
      24    O6      16.249465   20.490092   21.310039 O.3        1 MOL1        -0.3740
      25    C8      14.988395   19.217437   22.963042 C.3        1 MOL1         0.1003
      26    H12     13.964507   18.894508   23.192574 H          1 MOL1         0.0783
      27    O7      15.519499   19.923944   24.093251 O.3        1 MOL1        -0.5519
      28    H13     15.592458   19.239601   24.794512 H          1 MOL1         0.3769
      29    C9      15.829925   17.953090   22.683137 C.3        1 MOL1         0.1053
      30    H14     16.871148   18.259079   22.529830 H          1 MOL1         0.0783
      31    O8      15.740706   17.080018   23.814054 O.3        1 MOL1        -0.5519
      32    H15     15.881359   16.161369   23.480552 H          1 MOL1         0.3769
      33    C10     15.364837   17.220359   21.399428 C.3        1 MOL1         0.1018
      34    H16     14.460917   16.639632   21.627964 H          1 MOL1         0.0783
      35    C11     15.098918   18.189794   20.212110 C.3        1 MOL1         0.1043
      36    H17     16.068728   18.530874   19.827114 H          1 MOL1         0.0783
      37    O9      14.324942   19.334891   20.648984 O.3        1 MOL1        -0.3740
      38    C12     14.342258   17.525510   19.040646 C.3        1 MOL1         0.0138
      39    H18     14.963962   16.722835   18.622197 H          1 MOL1         0.0794
      40    H19     14.193775   18.270729   18.247721 H          1 MOL1         0.0794
      41    O10     13.083160   17.000328   19.470867 O.3        1 MOL1        -0.5486
      42    H20     12.587858   17.755650   19.859167 H          1 MOL1         0.3769
      43    C13     18.540821   23.965954   20.948703 C.3        1 MOL1         0.2972
      44    H21     18.897228   24.974958   20.704177 H          1 MOL1         0.0751
      45    O11     19.610521   23.121981   21.414245 O.3        1 MOL1        -0.3740
      46    C14     17.444156   24.016805   22.044111 C.3        1 MOL1         0.1003
      47    H22     16.621964   24.633282   21.657994 H          1 MOL1         0.0783
      48    O12     17.941127   24.596226   23.258425 O.3        1 MOL1        -0.5519
      49    H23     17.209548   24.480274   23.905894 H          1 MOL1         0.3769
      50    C15     16.887081   22.602933   22.335453 C.3        1 MOL1         0.1053
      51    H24     17.691056   22.015852   22.797363 H          1 MOL1         0.0783
      52    O13     15.786063   22.709482   23.245276 O.3        1 MOL1        -0.5519
      53    H25     15.646724   21.802856   23.616457 H          1 MOL1         0.3769
      54    C16     16.456045   21.887845   21.024788 C.3        1 MOL1         0.1018
      55    H26     15.543792   22.354477   20.629317 H          1 MOL1         0.0783
      56    C17     17.558550   21.964333   19.937788 C.3        1 MOL1         0.1043
      57    H27     18.407695   21.340692   20.244682 H          1 MOL1         0.0783
      58    O14     17.969557   23.344413   19.777946 O.3        1 MOL1        -0.3740
      59    C18     17.061443   21.465429   18.565561 C.3        1 MOL1         0.0138
      60    H28     16.267080   22.131265   18.202637 H          1 MOL1         0.0794
      61    H29     16.631170   20.462028   18.676743 H          1 MOL1         0.0794
      62    O15     18.148375   21.426787   17.639447 O.3        1 MOL1        -0.5486
      63    H30     18.559303   22.318721   17.663769 H          1 MOL1         0.3769
      64    C19     23.645805   22.911898   21.993485 C.3        1 MOL1         0.2972
      65    H31     24.722934   23.037521   22.161795 H          1 MOL1         0.0751
      66    O16     23.309630   21.556355   21.632065 O.3        1 MOL1        -0.3740
      67    C20     22.855244   23.299101   23.266140 C.3        1 MOL1         0.1003
      68    H32     23.028486   24.366830   23.453711 H          1 MOL1         0.0783
      69    O17     23.289389   22.541325   24.403319 O.3        1 MOL1        -0.5519
      70    H33     22.614145   22.725523   25.094630 H          1 MOL1         0.3769
      71    C21     21.342598   23.090702   23.039411 C.3        1 MOL1         0.1053
      72    H34     21.171433   22.014005   22.932761 H          1 MOL1         0.0783
      73    O18     20.608620   23.588853   24.164169 O.3        1 MOL1        -0.5519
      74    H35     19.687682   23.759315   23.848004 H          1 MOL1         0.3769
      75    C22     20.846955   23.780561   21.744177 C.3        1 MOL1         0.1018
      76    H36     20.702098   24.849348   21.952042 H          1 MOL1         0.0783
      77    C23     21.804923   23.591301   20.530470 C.3        1 MOL1         0.1043
      78    H37     21.669457   22.571513   20.146241 H          1 MOL1         0.0783
      79    O19     23.186852   23.776123   20.932977 O.3        1 MOL1        -0.3740
      80    C24     21.521585   24.563139   19.363568 C.3        1 MOL1         0.0138
      81    H38     20.523524   24.354907   18.956467 H          1 MOL1         0.0794
      82    H39     22.246334   24.371666   18.560893 H          1 MOL1         0.0794
      83    O20     21.605241   25.924889   19.793202 O.3        1 MOL1        -0.5486
      84    H40     22.508624   26.042572   20.162849 H          1 MOL1         0.3769
      85    C25     24.904884   17.797935   20.970216 C.3        1 MOL1         0.2972
      86    H41     25.535093   16.942228   20.697148 H          1 MOL1         0.0751
      87    O21     23.545602   17.388950   21.231416 O.3        1 MOL1        -0.3740
      88    C26     25.480532   18.536399   22.209107 C.3        1 MOL1         0.1003
      89    H42     26.484791   18.887802   21.938429 H          1 MOL1         0.0783
      90    O22     25.579865   17.677187   23.351716 O.3        1 MOL1        -0.5519
      91    H43     25.876215   18.266001   24.082245 H          1 MOL1         0.3769
      92    C27     24.625080   19.775504   22.561331 C.3        1 MOL1         0.1053
      93    H44     23.642878   19.423749   22.906282 H          1 MOL1         0.0783
      94    O23     25.267291   20.518366   23.604144 O.3        1 MOL1        -0.5519
      95    H45     24.610923   21.190472   23.915615 H          1 MOL1         0.3769
      96    C28     24.405658   20.679669   21.321195 C.3        1 MOL1         0.1018
      97    H46     25.326525   21.233610   21.094487 H          1 MOL1         0.0783
      98    C29     23.981949   19.876495   20.065084 C.3        1 MOL1         0.1043
      99    H47     22.949553   19.533667   20.201116 H          1 MOL1         0.0783
     100    O24     24.873274   18.748608   19.885331 O.3        1 MOL1        -0.3740
     101    C30     24.044223   20.729056   18.781307 C.3        1 MOL1         0.0138
     102    H48     25.088549   20.999131   18.575046 H          1 MOL1         0.0794
     103    H49     23.483180   21.659935   18.933891 H          1 MOL1         0.0794
     104    O25     23.487231   20.000095   17.686380 O.3        1 MOL1        -0.5486
     105    H50     23.951520   19.134131   17.670288 H          1 MOL1         0.3769
     106    C31     21.233280   14.000247   21.862542 C.3        1 MOL1         0.2972
     107    H51     20.855442   12.997072   22.097267 H          1 MOL1         0.0751
     108    O26     20.216727   14.824465   21.255566 O.3        1 MOL1        -0.3740
     109    C32     21.756945   14.692141   23.146470 C.3        1 MOL1         0.1003
     110    H52     22.584739   14.081579   23.530342 H          1 MOL1         0.0783
     111    O27     20.745266   14.792396   24.156846 O.3        1 MOL1        -0.5519
     112    H53     21.136920   15.395187   24.827546 H          1 MOL1         0.3769
     113    C33     22.316170   16.094434   22.824108 C.3        1 MOL1         0.1053
     114    H54     21.486785   16.725389   22.482012 H          1 MOL1         0.0783
     115    O28     22.900150   16.650464   24.008168 O.3        1 MOL1        -0.5519
     116    H55     23.710666   17.136163   23.722255 H          1 MOL1         0.3769
     117    C34     23.364905   16.032905   21.687825 C.3        1 MOL1         0.1018
     118    H56     24.294119   15.607828   22.091109 H          1 MOL1         0.0783
     119    C35     22.874950   15.185074   20.477866 C.3        1 MOL1         0.1043
     120    H57     22.082273   15.746664   19.966449 H          1 MOL1         0.0783
     121    O29     22.338015   13.917532   20.937349 O.3        1 MOL1        -0.3740
     122    C36     23.977447   14.894764   19.431523 C.3        1 MOL1         0.0138
     123    H58     24.206482   15.827236   18.898191 H          1 MOL1         0.0794
     124    H59     23.579777   14.186568   18.692275 H          1 MOL1         0.0794
     125    O30     25.169233   14.371722   20.031574 O.3        1 MOL1        -0.5486
     126    H60     25.785880   14.128506   19.306894 H          1 MOL1         0.3769
     127    C1      20.329364   18.495843   19.373905 C.3        1 MOL1        -0.2398
     128    H1      19.798453   17.866142   18.647886 H          1 MOL1         0.0972
     129    H2      20.406393   19.505016   18.947335 H          1 MOL1         0.0972
     130    H3      21.342502   18.091280   19.487321 H          1 MOL1         0.0972
     131    C2      19.584595   18.515691   20.724716 C.3        1 MOL1        -0.1383
     132    H4      19.537475   17.494176   21.118207 H          1 MOL1         0.0961
     133    H5      18.547859   18.840449   20.560438 H          1 MOL1         0.0961
     134    C3      20.266495   19.445386   21.755246 C.3        1 MOL1        -0.1407
     135    H6      21.286516   19.095615   21.963915 H          1 MOL1         0.0961
     136    H7      20.369467   20.445918   21.314886 H          1 MOL1         0.0961
     137    C4      19.469534   19.560628   23.077682 C.3        1 MOL1        -0.1407
     138    H8      18.432990   19.839620   22.851762 H          1 MOL1         0.0961
     139    H9      19.886423   20.384131   23.669666 H          1 MOL1         0.0961
     140    C5      19.496075   18.266235   23.929357 C.3        1 MOL1        -0.1472
     141    H10     19.202070   17.407149   23.315213 H          1 MOL1         0.0961
     142    H11     20.521783   18.072875   24.268920 H          1 MOL1         0.0961
     143    C6      18.550164   18.327467   25.145329 C.3        1 MOL1         0.1190
     144    H12     17.535103   18.500051   24.776842 H          1 MOL1         0.0923
     145    C7      18.564126   16.987734   25.897300 C.3        1 MOL1        -0.2463
     146    H13     17.853279   17.004237   26.732210 H          1 MOL1         0.0972
     147    H14     19.560983   16.765696   26.297431 H          1 MOL1         0.0972
     148    H15     18.272073   16.165635   25.231194 H          1 MOL1         0.0972
     149    N1      18.871172   19.466610   26.073861 N.4        1 MOL1        -0.5974
     150    H16     18.800815   20.367962   25.593214 H          1 MOL1         0.3625
     151    H17     18.227033   19.490885   26.869015 H          1 MOL1         0.3625
     152    H18     19.820755   19.384773   26.446382 H          1 MOL1         0.3625
@<TRIPOS>BOND
    1     1     2    1
    2     1     3    1
    3     1     4    1
    4     4     5    1
    5     4     6    1
    6     6     7    1
    7     4     8    1
    8     8     9    1
    9     8    10    1
   10    10    11    1
   11     8    12    1
   12    12    13    1
   13    12    14    1
   14    14    15    1
   15     1    16    1
   16    14    16    1
   17    14    17    1
   18    17    18    1
   19    17    19    1
   20    17    20    1
   21    20    21    1
   22    22    23    1
   23    22    24    1
   24    22    25    1
   25    25    26    1
   26    25    27    1
   27    27    28    1
   28    25    29    1
   29    29    30    1
   30    29    31    1
   31    31    32    1
   32     3    33    1
   33    29    33    1
   34    33    34    1
   35    33    35    1
   36    35    36    1
   37    22    37    1
   38    35    37    1
   39    35    38    1
   40    38    39    1
   41    38    40    1
   42    38    41    1
   43    41    42    1
   44    43    44    1
   45    43    45    1
   46    43    46    1
   47    46    47    1
   48    46    48    1
   49    48    49    1
   50    46    50    1
   51    50    51    1
   52    50    52    1
   53    52    53    1
   54    24    54    1
   55    50    54    1
   56    54    55    1
   57    54    56    1
   58    56    57    1
   59    43    58    1
   60    56    58    1
   61    56    59    1
   62    59    60    1
   63    59    61    1
   64    59    62    1
   65    62    63    1
   66    64    65    1
   67    64    66    1
   68    64    67    1
   69    67    68    1
   70    67    69    1
   71    69    70    1
   72    67    71    1
   73    71    72    1
   74    71    73    1
   75    73    74    1
   76    45    75    1
   77    71    75    1
   78    75    76    1
   79    75    77    1
   80    77    78    1
   81    64    79    1
   82    77    79    1
   83    77    80    1
   84    80    81    1
   85    80    82    1
   86    80    83    1
   87    83    84    1
   88    85    86    1
   89    85    87    1
   90    85    88    1
   91    88    89    1
   92    88    90    1
   93    90    91    1
   94    88    92    1
   95    92    93    1
   96    92    94    1
   97    94    95    1
   98    66    96    1
   99    92    96    1
  100    96    97    1
  101    96    98    1
  102    98    99    1
  103    85   100    1
  104    98   100    1
  105    98   101    1
  106   101   102    1
  107   101   103    1
  108   101   104    1
  109   104   105    1
  110   106   107    1
  111    12   108    1
  112   106   108    1
  113   106   109    1
  114   109   110    1
  115   109   111    1
  116   111   112    1
  117   109   113    1
  118   113   114    1
  119   113   115    1
  120   115   116    1
  121    87   117    1
  122   113   117    1
  123   117   118    1
  124   117   119    1
  125   119   120    1
  126   106   121    1
  127   119   121    1
  128   119   122    1
  129   122   123    1
  130   122   124    1
  131   122   125    1
  132   125   126    1
  133   127   128    1
  134   127   129    1
  135   127   130    1
  136   127   131    1
  137   131   132    1
  138   131   133    1
  139   131   134    1
  140   134   135    1
  141   134   136    1
  142   134   137    1
  143   137   138    1
  144   137   139    1
  145   137   140    1
  146   140   141    1
  147   140   142    1
  148   140   143    1
  149   143   144    1
  150   143   145    1
  151   145   146    1
  152   145   147    1
  153   145   148    1
  154   143   149    1
  155   149   150    1
  156   149   151    1
  157   149   152    1
@<TRIPOS>SUBSTRUCTURE
       1 MOL1            1 RESIDUE      1      MOL     
       2 MOL1          152 RESIDUE      1      MOL     
@<SCITEGIC>MOL_PROPERTY
VM2 Rank
SciTegic.value.IntegerValue
4

@<SCITEGIC>MOL_PROPERTY
Conf_Id
SciTegic.value.IntegerValue
25877

@<SCITEGIC>MOL_PROPERTY
Probability
SciTegic.value.DoubleValue
3.25

@<SCITEGIC>MOL_PROPERTY
Sum Probability
SciTegic.value.DoubleValue
18.17

@<SCITEGIC>MOL_PROPERTY
Delta G
SciTegic.value.DoubleValue
0.460

@<SCITEGIC>MOL_PROPERTY
G
SciTegic.value.DoubleValue
542.717

@<SCITEGIC>MOL_PROPERTY
E
SciTegic.value.DoubleValue
339.876

@<SCITEGIC>MOL_PROPERTY
-TS
SciTegic.value.DoubleValue
202.841

@<SCITEGIC>MOL_PROPERTY
U+W
SciTegic.value.DoubleValue
205.740

@<SCITEGIC>MOL_PROPERTY
U
SciTegic.value.DoubleValue
285.519

@<SCITEGIC>MOL_PROPERTY
W
SciTegic.value.DoubleValue
-79.779

@<SCITEGIC>MOL_PROPERTY
W(PB)
SciTegic.value.DoubleValue
-85.876

@<SCITEGIC>MOL_PROPERTY
W(SA)
SciTegic.value.DoubleValue
6.096

@<SCITEGIC>MOL_PROPERTY
Valence
SciTegic.value.DoubleValue
145.000

@<SCITEGIC>MOL_PROPERTY
Coulomb
SciTegic.value.DoubleValue
169.049

@<SCITEGIC>MOL_PROPERTY
VdW
SciTegic.value.DoubleValue
-28.529

@<SCITEGIC>MOL_PROPERTY
VdW6
SciTegic.value.DoubleValue
-180.564

@<SCITEGIC>MOL_PROPERTY
VdW12
SciTegic.value.DoubleValue
152.035

@<SCITEGIC>MOL_PROPERTY
Bond
SciTegic.value.DoubleValue
4.201

@<SCITEGIC>MOL_PROPERTY
Angle
SciTegic.value.DoubleValue
10.465

@<SCITEGIC>MOL_PROPERTY
Pdih
SciTegic.value.DoubleValue
130.334

@<SCITEGIC>MOL_PROPERTY
Idih
SciTegic.value.DoubleValue
0.000

@<SCITEGIC>MOL_PROPERTY
Tether
SciTegic.value.DoubleValue
0.000

@<TRIPOS>MOLECULE
CD_guest-s13_vm2_single.mol2 : vm2 host+ligand conformer 5
         152         157           2
SMALL
USER_CHARGES
 
@<TRIPOS>ATOM
       1    C1      16.281755   15.283054   20.759705 C.3        1 MOL1         0.2972
       2    H1      15.248381   15.083770   20.447728 H          1 MOL1         0.0751
       3    O1      16.446826   16.637397   21.219872 O.3        1 MOL1        -0.3740
       4    C2      16.710896   14.322129   21.898910 C.3        1 MOL1         0.1003
       5    H2      16.613296   13.296940   21.518660 H          1 MOL1         0.0783
       6    O2      15.881279   14.478609   23.058465 O.3        1 MOL1        -0.5519
       7    H3      16.302270   13.911022   23.742913 H          1 MOL1         0.3769
       8    C3      18.191202   14.550334   22.287277 C.3        1 MOL1         0.1053
       9    H4      18.267049   15.545555   22.743543 H          1 MOL1         0.0783
      10    O3      18.587566   13.554524   23.237350 O.3        1 MOL1        -0.5519
      11    H5      19.418326   13.889656   23.657741 H          1 MOL1         0.3769
      12    C4      19.111923   14.519256   21.035936 C.3        1 MOL1         0.1018
      13    H6      19.190870   13.491121   20.657691 H          1 MOL1         0.0783
      14    C5      18.569137   15.421434   19.898347 C.3        1 MOL1         0.1043
      15    H7      18.664171   16.472510   20.198851 H          1 MOL1         0.0783
      16    O4      17.182216   15.084525   19.649226 O.3        1 MOL1        -0.3740
      17    C6      19.340557   15.223134   18.577508 C.3        1 MOL1         0.0138
      18    H8      19.184759   14.197928   18.215924 H          1 MOL1         0.0794
      19    H9      20.414879   15.353089   18.760042 H          1 MOL1         0.0794
      20    O5      18.895414   16.172429   17.607306 O.3        1 MOL1        -0.5486
      21    H10     17.918013   16.082920   17.566430 H          1 MOL1         0.3769
      22    C7      14.577859   20.242780   21.628959 C.3        1 MOL1         0.2972
      23    H11     13.921570   21.114876   21.743195 H          1 MOL1         0.0751
      24    O6      15.940264   20.624640   21.347613 O.3        1 MOL1        -0.3740
      25    C8      14.556955   19.383444   22.915648 C.3        1 MOL1         0.1003
      26    H12     13.535718   19.001793   23.044695 H          1 MOL1         0.0783
      27    O7      14.923813   20.155524   24.066852 O.3        1 MOL1        -0.5519
      28    H13     15.057706   19.489221   24.778108 H          1 MOL1         0.3769
      29    C9      15.505939   18.175089   22.766234 C.3        1 MOL1         0.1053
      30    H14     16.528642   18.564544   22.718460 H          1 MOL1         0.0783
      31    O8      15.370637   17.306639   23.897375 O.3        1 MOL1        -0.5519
      32    H15     15.700976   16.419223   23.613691 H          1 MOL1         0.3769
      33    C10     15.239248   17.381768   21.462875 C.3        1 MOL1         0.1018
      34    H16     14.375083   16.723640   21.625946 H          1 MOL1         0.0783
      35    C11     15.001159   18.287875   20.218283 C.3        1 MOL1         0.1043
      36    H17     15.974389   18.675558   19.888928 H          1 MOL1         0.0783
      37    O9      14.126638   19.397367   20.550142 O.3        1 MOL1        -0.3740
      38    C12     14.375924   17.539130   19.020414 C.3        1 MOL1         0.0138
      39    H18     15.079732   16.774055   18.667529 H          1 MOL1         0.0794
      40    H19     14.229778   18.250766   18.196747 H          1 MOL1         0.0794
      41    O10     13.130479   16.935359   19.381344 O.3        1 MOL1        -0.5486
      42    H20     12.554445   17.663379   19.705010 H          1 MOL1         0.3769
      43    C13     18.437161   23.874460   20.792505 C.3        1 MOL1         0.2972
      44    H21     18.881885   24.843455   20.531862 H          1 MOL1         0.0751
      45    O11     19.450734   22.905030   21.134363 O.3        1 MOL1        -0.3740
      46    C14     17.432442   24.023810   21.967082 C.3        1 MOL1         0.1003
      47    H22     16.645437   24.712998   21.633996 H          1 MOL1         0.0783
      48    O12     18.053015   24.558610   23.142870 O.3        1 MOL1        -0.5519
      49    H23     17.349364   24.533901   23.830258 H          1 MOL1         0.3769
      50    C15     16.764963   22.668954   22.299164 C.3        1 MOL1         0.1053
      51    H24     17.536615   21.999892   22.704538 H          1 MOL1         0.0783
      52    O13     15.736373   22.869578   23.275609 O.3        1 MOL1        -0.5519
      53    H25     15.462823   21.969947   23.584477 H          1 MOL1         0.3769
      54    C16     16.171375   22.007180   21.028963 C.3        1 MOL1         0.1018
      55    H26     15.247721   22.523575   20.734943 H          1 MOL1         0.0783
      56    C17     17.156653   22.022318   19.832488 C.3        1 MOL1         0.1043
      57    H27     17.958529   21.301430   20.030717 H          1 MOL1         0.0783
      58    O14     17.699922   23.355076   19.666336 O.3        1 MOL1        -0.3740
      59    C18     16.469539   21.630706   18.508348 C.3        1 MOL1         0.0138
      60    H28     15.729717   22.397567   18.242470 H          1 MOL1         0.0794
      61    H29     15.933264   20.682488   18.642016 H          1 MOL1         0.0794
      62    O15     17.446807   21.494621   17.475422 O.3        1 MOL1        -0.5486
      63    H30     17.966311   22.328806   17.479049 H          1 MOL1         0.3769
      64    C19     23.491196   22.614977   22.047929 C.3        1 MOL1         0.2972
      65    H31     24.530038   22.795947   22.351759 H          1 MOL1         0.0751
      66    O16     23.331007   21.315489   21.442455 O.3        1 MOL1        -0.3740
      67    C20     22.543593   22.733223   23.268842 C.3        1 MOL1         0.1003
      68    H32     22.629898   23.759577   23.648911 H          1 MOL1         0.0783
      69    O17     22.893961   21.819762   24.316083 O.3        1 MOL1        -0.5519
      70    H33     22.132401   21.864089   24.936262 H          1 MOL1         0.3769
      71    C21     21.075034   22.509237   22.847910 C.3        1 MOL1         0.1053
      72    H34     20.967660   21.470422   22.512734 H          1 MOL1         0.0783
      73    O18     20.222927   22.753258   23.973117 O.3        1 MOL1        -0.5519
      74    H35     19.418446   23.207868   23.625834 H          1 MOL1         0.3769
      75    C22     20.681890   23.431440   21.668774 C.3        1 MOL1         0.1018
      76    H36     20.558277   24.454539   22.049173 H          1 MOL1         0.0783
      77    C23     21.741431   23.413265   20.528833 C.3        1 MOL1         0.1043
      78    H37     21.688235   22.439985   20.023353 H          1 MOL1         0.0783
      79    O19     23.069899   23.601841   21.081197 O.3        1 MOL1        -0.3740
      80    C24     21.518910   24.505207   19.458807 C.3        1 MOL1         0.0138
      81    H38     20.575079   24.305912   18.934347 H          1 MOL1         0.0794
      82    H39     22.324179   24.439825   18.714875 H          1 MOL1         0.0794
      83    O20     21.491054   25.808890   20.046887 O.3        1 MOL1        -0.5486
      84    H40     22.349844   25.920199   20.512206 H          1 MOL1         0.3769
      85    C25     25.231835   17.692317   21.040307 C.3        1 MOL1         0.2972
      86    H41     25.884406   16.833194   20.838142 H          1 MOL1         0.0751
      87    O21     23.872288   17.284995   21.302766 O.3        1 MOL1        -0.3740
      88    C26     25.748160   18.523713   22.240944 C.3        1 MOL1         0.1003
      89    H42     26.727368   18.933070   21.959938 H          1 MOL1         0.0783
      90    O22     25.895597   17.726371   23.421901 O.3        1 MOL1        -0.5519
      91    H43     26.141722   18.367981   24.126057 H          1 MOL1         0.3769
      92    C27     24.796398   19.710119   22.520772 C.3        1 MOL1         0.1053
      93    H44     23.837076   19.299952   22.864026 H          1 MOL1         0.0783
      94    O23     25.361308   20.531348   23.548689 O.3        1 MOL1        -0.5519
      95    H45     24.606509   21.044575   23.929939 H          1 MOL1         0.3769
      96    C28     24.531396   20.544921   21.235454 C.3        1 MOL1         0.1018
      97    H46     25.394827   21.192097   21.031003 H          1 MOL1         0.0783
      98    C29     24.261232   19.669697   19.979639 C.3        1 MOL1         0.1043
      99    H47     23.244904   19.264949   20.039048 H          1 MOL1         0.0783
     100    O24     25.218350   18.584323   19.906251 O.3        1 MOL1        -0.3740
     101    C30     24.369208   20.486249   18.675844 C.3        1 MOL1         0.0138
     102    H48     25.404829   20.827647   18.545236 H          1 MOL1         0.0794
     103    H49     23.730272   21.376304   18.753106 H          1 MOL1         0.0794
     104    O25     23.958304   19.687336   17.564985 O.3        1 MOL1        -0.5486
     105    H50     24.484504   18.858703   17.615606 H          1 MOL1         0.3769
     106    C31     21.366576   14.075949   21.870055 C.3        1 MOL1         0.2972
     107    H51     20.901287   13.099655   22.055956 H          1 MOL1         0.0751
     108    O26     20.402781   15.044486   21.403515 O.3        1 MOL1        -0.3740
     109    C32     22.027532   14.602145   23.166283 C.3        1 MOL1         0.1003
     110    H52     22.804346   13.880130   23.450275 H          1 MOL1         0.0783
     111    O27     21.079271   14.714945   24.237276 O.3        1 MOL1        -0.5519
     112    H53     21.587800   15.130188   24.968369 H          1 MOL1         0.3769
     113    C33     22.715181   15.962650   22.920716 C.3        1 MOL1         0.1053
     114    H54     21.939904   16.707385   22.707514 H          1 MOL1         0.0783
     115    O28     23.437508   16.335793   24.099223 O.3        1 MOL1        -0.5519
     116    H55     24.182228   16.915407   23.808452 H          1 MOL1         0.3769
     117    C34     23.666272   15.916180   21.699040 C.3        1 MOL1         0.1018
     118    H56     24.601881   15.424070   21.997138 H          1 MOL1         0.0783
     119    C35     23.041193   15.192426   20.472017 C.3        1 MOL1         0.1043
     120    H57     22.283682   15.858139   20.038780 H          1 MOL1         0.0783
     121    O29     22.403631   13.954190   20.874503 O.3        1 MOL1        -0.3740
     122    C36     24.064519   14.879839   19.354221 C.3        1 MOL1         0.0138
     123    H58     24.356366   15.824657   18.875941 H          1 MOL1         0.0794
     124    H59     23.570914   14.265816   18.589065 H          1 MOL1         0.0794
     125    O30     25.227884   14.210640   19.856977 O.3        1 MOL1        -0.5486
     126    H60     25.794063   13.979381   19.088457 H          1 MOL1         0.3769
     127    C1      20.224232   19.543168   19.382631 C.3        1 MOL1        -0.2398
     128    H1      21.082493   19.390449   18.715120 H          1 MOL1         0.0972
     129    H2      19.343676   19.095935   18.902070 H          1 MOL1         0.0972
     130    H3      20.057910   20.623800   19.469309 H          1 MOL1         0.0972
     131    C2      20.489108   18.909084   20.763766 C.3        1 MOL1        -0.1383
     132    H4      21.368852   19.386250   21.209826 H          1 MOL1         0.0961
     133    H5      20.737382   17.846946   20.631505 H          1 MOL1         0.0961
     134    C3      19.276653   19.048050   21.713538 C.3        1 MOL1        -0.1407
     135    H6      19.056232   20.108862   21.893459 H          1 MOL1         0.0961
     136    H7      18.390028   18.630580   21.218360 H          1 MOL1         0.0961
     137    C4      19.485682   18.318233   23.062993 C.3        1 MOL1        -0.1407
     138    H8      19.773991   17.277609   22.870044 H          1 MOL1         0.0961
     139    H9      18.526963   18.277220   23.593563 H          1 MOL1         0.0961
     140    C5      20.536658   18.997897   23.976702 C.3        1 MOL1        -0.1472
     141    H10     21.467441   19.160435   23.420924 H          1 MOL1         0.0961
     142    H11     20.173435   19.988984   24.277572 H          1 MOL1         0.0961
     143    C6      20.870621   18.165423   25.230758 C.3        1 MOL1         0.1190
     144    H12     21.247482   17.192871   24.901851 H          1 MOL1         0.0923
     145    C7      21.974668   18.854663   26.047241 C.3        1 MOL1        -0.2463
     146    H13     22.256923   18.242335   26.912135 H          1 MOL1         0.0972
     147    H14     21.647153   19.836028   26.411626 H          1 MOL1         0.0972
     148    H15     22.875593   18.999652   25.437200 H          1 MOL1         0.0972
     149    N1      19.662968   17.893229   26.085394 N.4        1 MOL1        -0.5974
     150    H16     18.948121   17.377818   25.564105 H          1 MOL1         0.3625
     151    H17     19.907548   17.334044   26.907145 H          1 MOL1         0.3625
     152    H18     19.240075   18.763911   26.417439 H          1 MOL1         0.3625
@<TRIPOS>BOND
    1     1     2    1
    2     1     3    1
    3     1     4    1
    4     4     5    1
    5     4     6    1
    6     6     7    1
    7     4     8    1
    8     8     9    1
    9     8    10    1
   10    10    11    1
   11     8    12    1
   12    12    13    1
   13    12    14    1
   14    14    15    1
   15     1    16    1
   16    14    16    1
   17    14    17    1
   18    17    18    1
   19    17    19    1
   20    17    20    1
   21    20    21    1
   22    22    23    1
   23    22    24    1
   24    22    25    1
   25    25    26    1
   26    25    27    1
   27    27    28    1
   28    25    29    1
   29    29    30    1
   30    29    31    1
   31    31    32    1
   32     3    33    1
   33    29    33    1
   34    33    34    1
   35    33    35    1
   36    35    36    1
   37    22    37    1
   38    35    37    1
   39    35    38    1
   40    38    39    1
   41    38    40    1
   42    38    41    1
   43    41    42    1
   44    43    44    1
   45    43    45    1
   46    43    46    1
   47    46    47    1
   48    46    48    1
   49    48    49    1
   50    46    50    1
   51    50    51    1
   52    50    52    1
   53    52    53    1
   54    24    54    1
   55    50    54    1
   56    54    55    1
   57    54    56    1
   58    56    57    1
   59    43    58    1
   60    56    58    1
   61    56    59    1
   62    59    60    1
   63    59    61    1
   64    59    62    1
   65    62    63    1
   66    64    65    1
   67    64    66    1
   68    64    67    1
   69    67    68    1
   70    67    69    1
   71    69    70    1
   72    67    71    1
   73    71    72    1
   74    71    73    1
   75    73    74    1
   76    45    75    1
   77    71    75    1
   78    75    76    1
   79    75    77    1
   80    77    78    1
   81    64    79    1
   82    77    79    1
   83    77    80    1
   84    80    81    1
   85    80    82    1
   86    80    83    1
   87    83    84    1
   88    85    86    1
   89    85    87    1
   90    85    88    1
   91    88    89    1
   92    88    90    1
   93    90    91    1
   94    88    92    1
   95    92    93    1
   96    92    94    1
   97    94    95    1
   98    66    96    1
   99    92    96    1
  100    96    97    1
  101    96    98    1
  102    98    99    1
  103    85   100    1
  104    98   100    1
  105    98   101    1
  106   101   102    1
  107   101   103    1
  108   101   104    1
  109   104   105    1
  110   106   107    1
  111    12   108    1
  112   106   108    1
  113   106   109    1
  114   109   110    1
  115   109   111    1
  116   111   112    1
  117   109   113    1
  118   113   114    1
  119   113   115    1
  120   115   116    1
  121    87   117    1
  122   113   117    1
  123   117   118    1
  124   117   119    1
  125   119   120    1
  126   106   121    1
  127   119   121    1
  128   119   122    1
  129   122   123    1
  130   122   124    1
  131   122   125    1
  132   125   126    1
  133   127   128    1
  134   127   129    1
  135   127   130    1
  136   127   131    1
  137   131   132    1
  138   131   133    1
  139   131   134    1
  140   134   135    1
  141   134   136    1
  142   134   137    1
  143   137   138    1
  144   137   139    1
  145   137   140    1
  146   140   141    1
  147   140   142    1
  148   140   143    1
  149   143   144    1
  150   143   145    1
  151   145   146    1
  152   145   147    1
  153   145   148    1
  154   143   149    1
  155   149   150    1
  156   149   151    1
  157   149   152    1
@<TRIPOS>SUBSTRUCTURE
       1 MOL1            1 RESIDUE      1      MOL     
       2 MOL1          152 RESIDUE      1      MOL     
@<SCITEGIC>MOL_PROPERTY
VM2 Rank
SciTegic.value.IntegerValue
5

@<SCITEGIC>MOL_PROPERTY
Conf_Id
SciTegic.value.IntegerValue
35162

@<SCITEGIC>MOL_PROPERTY
Probability
SciTegic.value.DoubleValue
3.16

@<SCITEGIC>MOL_PROPERTY
Sum Probability
SciTegic.value.DoubleValue
21.32

@<SCITEGIC>MOL_PROPERTY
Delta G
SciTegic.value.DoubleValue
0.477

@<SCITEGIC>MOL_PROPERTY
G
SciTegic.value.DoubleValue
542.734

@<SCITEGIC>MOL_PROPERTY
E
SciTegic.value.DoubleValue
339.869

@<SCITEGIC>MOL_PROPERTY
-TS
SciTegic.value.DoubleValue
202.866

@<SCITEGIC>MOL_PROPERTY
U+W
SciTegic.value.DoubleValue
205.732

@<SCITEGIC>MOL_PROPERTY
U
SciTegic.value.DoubleValue
285.163

@<SCITEGIC>MOL_PROPERTY
W
SciTegic.value.DoubleValue
-79.431

@<SCITEGIC>MOL_PROPERTY
W(PB)
SciTegic.value.DoubleValue
-85.580

@<SCITEGIC>MOL_PROPERTY
W(SA)
SciTegic.value.DoubleValue
6.149

@<SCITEGIC>MOL_PROPERTY
Valence
SciTegic.value.DoubleValue
144.942

@<SCITEGIC>MOL_PROPERTY
Coulomb
SciTegic.value.DoubleValue
168.755

@<SCITEGIC>MOL_PROPERTY
VdW
SciTegic.value.DoubleValue
-28.535

@<SCITEGIC>MOL_PROPERTY
VdW6
SciTegic.value.DoubleValue
-180.603

@<SCITEGIC>MOL_PROPERTY
VdW12
SciTegic.value.DoubleValue
152.068

@<SCITEGIC>MOL_PROPERTY
Bond
SciTegic.value.DoubleValue
4.200

@<SCITEGIC>MOL_PROPERTY
Angle
SciTegic.value.DoubleValue
10.466

@<SCITEGIC>MOL_PROPERTY
Pdih
SciTegic.value.DoubleValue
130.276

@<SCITEGIC>MOL_PROPERTY
Idih
SciTegic.value.DoubleValue
0.000

@<SCITEGIC>MOL_PROPERTY
Tether
SciTegic.value.DoubleValue
0.000

@<TRIPOS>MOLECULE
CD_guest-s13_vm2_single.mol2 : vm2 host+ligand conformer 6
         152         157           2
SMALL
USER_CHARGES
 
@<TRIPOS>ATOM
       1    C1      16.324524   15.276772   20.726342 C.3        1 MOL1         0.2972
       2    H1      15.294127   15.077464   20.404696 H          1 MOL1         0.0751
       3    O1      16.486380   16.633040   21.181743 O.3        1 MOL1        -0.3740
       4    C2      16.741332   14.319490   21.873282 C.3        1 MOL1         0.1003
       5    H2      16.644127   13.293067   21.496270 H          1 MOL1         0.0783
       6    O2      15.902158   14.482787   23.025031 O.3        1 MOL1        -0.5519
       7    H3      16.314118   13.914739   23.714561 H          1 MOL1         0.3769
       8    C3      18.218839   14.544648   22.274099 C.3        1 MOL1         0.1053
       9    H4      18.292986   15.540851   22.728413 H          1 MOL1         0.0783
      10    O3      18.602819   13.550270   23.230686 O.3        1 MOL1        -0.5519
      11    H5      19.426842   13.887255   23.662627 H          1 MOL1         0.3769
      12    C4      19.151318   14.508105   21.031287 C.3        1 MOL1         0.1018
      13    H6      19.230254   13.479217   20.655136 H          1 MOL1         0.0783
      14    C5      18.620357   15.410616   19.888395 C.3        1 MOL1         0.1043
      15    H7      18.712576   16.461187   20.190940 H          1 MOL1         0.0783
      16    O4      17.235888   15.073911   19.625636 O.3        1 MOL1        -0.3740
      17    C6      19.404096   15.215923   18.574397 C.3        1 MOL1         0.0138
      18    H8      19.253861   14.191018   18.209613 H          1 MOL1         0.0794
      19    H9      20.476384   15.348217   18.766812 H          1 MOL1         0.0794
      20    O5      18.964902   16.166469   17.602358 O.3        1 MOL1        -0.5486
      21    H10     17.988952   16.068410   17.547659 H          1 MOL1         0.3769
      22    C7      14.612509   20.234847   21.576536 C.3        1 MOL1         0.2972
      23    H11     13.955778   21.107002   21.687752 H          1 MOL1         0.0751
      24    O6      15.972048   20.616455   21.276875 O.3        1 MOL1        -0.3740
      25    C8      14.603705   19.386733   22.871303 C.3        1 MOL1         0.1003
      26    H12     13.584311   19.003938   23.011117 H          1 MOL1         0.0783
      27    O7      14.977333   20.167019   24.014572 O.3        1 MOL1        -0.5519
      28    H13     15.118674   19.505391   24.728784 H          1 MOL1         0.3769
      29    C9      15.553501   18.178875   22.724370 C.3        1 MOL1         0.1053
      30    H14     16.574429   18.570741   22.663687 H          1 MOL1         0.0783
      31    O8      15.431348   17.320382   23.864653 O.3        1 MOL1        -0.5519
      32    H15     15.750059   16.428456   23.582113 H          1 MOL1         0.3769
      33    C10     15.277221   17.372751   21.430842 C.3        1 MOL1         0.1018
      34    H16     14.418706   16.711064   21.608769 H          1 MOL1         0.0783
      35    C11     15.021236   18.266584   20.180900 C.3        1 MOL1         0.1043
      36    H17     15.988863   18.654316   19.836202 H          1 MOL1         0.0783
      37    O9      14.148800   19.376473   20.513465 O.3        1 MOL1        -0.3740
      38    C12     14.382701   17.506240   18.997389 C.3        1 MOL1         0.0138
      39    H18     15.085503   16.742706   18.639217 H          1 MOL1         0.0794
      40    H19     14.220367   18.211790   18.171465 H          1 MOL1         0.0794
      41    O10     13.145993   16.898072   19.380206 O.3        1 MOL1        -0.5486
      42    H20     12.569755   17.625677   19.704506 H          1 MOL1         0.3769
      43    C13     18.474624   23.861713   20.731050 C.3        1 MOL1         0.2972
      44    H21     18.927661   24.828094   20.475022 H          1 MOL1         0.0751
      45    O11     19.480073   22.886216   21.080799 O.3        1 MOL1        -0.3740
      46    C14     17.460676   24.017666   21.896531 C.3        1 MOL1         0.1003
      47    H22     16.676330   24.705087   21.553582 H          1 MOL1         0.0783
      48    O12     18.072162   24.558913   23.074121 O.3        1 MOL1        -0.5519
      49    H23     17.363376   24.535584   23.756386 H          1 MOL1         0.3769
      50    C15     16.790262   22.665030   22.230651 C.3        1 MOL1         0.1053
      51    H24     17.560000   21.994934   22.637796 H          1 MOL1         0.0783
      52    O13     15.762928   22.871709   23.207227 O.3        1 MOL1        -0.5519
      53    H25     15.490939   21.973975   23.522680 H          1 MOL1         0.3769
      54    C16     16.195605   22.002182   20.961329 C.3        1 MOL1         0.1018
      55    H26     15.266909   22.513987   20.675699 H          1 MOL1         0.0783
      56    C17     17.176414   22.026291   19.758557 C.3        1 MOL1         0.1043
      57    H27     17.975023   21.300177   19.951873 H          1 MOL1         0.0783
      58    O14     17.744410   23.349715   19.597532 O.3        1 MOL1        -0.3740
      59    C18     16.500136   21.641622   18.424021 C.3        1 MOL1         0.0138
      60    H28     16.073408   20.634228   18.513538 H          1 MOL1         0.0794
      61    H29     17.265815   21.606951   17.637556 H          1 MOL1         0.0794
      62    O15     15.476900   22.579569   18.078332 O.3        1 MOL1        -0.5486
      63    H30     15.903796   23.465183   18.093092 H          1 MOL1         0.3769
      64    C19     23.509125   22.594553   22.055898 C.3        1 MOL1         0.2972
      65    H31     24.543187   22.777355   22.374577 H          1 MOL1         0.0751
      66    O16     23.358732   21.292727   21.453212 O.3        1 MOL1        -0.3740
      67    C20     22.543323   22.716195   23.262054 C.3        1 MOL1         0.1003
      68    H32     22.623401   23.743845   23.639982 H          1 MOL1         0.0783
      69    O17     22.879073   21.806476   24.317297 O.3        1 MOL1        -0.5519
      70    H33     22.108803   21.852803   24.926438 H          1 MOL1         0.3769
      71    C21     21.081156   22.489887   22.820122 C.3        1 MOL1         0.1053
      72    H34     20.979256   21.450070   22.486718 H          1 MOL1         0.0783
      73    O18     20.212984   22.736563   23.932343 O.3        1 MOL1        -0.5519
      74    H35     19.418621   23.200674   23.574641 H          1 MOL1         0.3769
      75    C22     20.705721   23.409000   21.632631 C.3        1 MOL1         0.1018
      76    H36     20.580349   24.433487   22.008730 H          1 MOL1         0.0783
      77    C23     21.781546   23.386257   20.508212 C.3        1 MOL1         0.1043
      78    H37     21.735758   22.411001   20.005856 H          1 MOL1         0.0783
      79    O19     23.101733   23.577371   21.079165 O.3        1 MOL1        -0.3740
      80    C24     21.574529   24.474260   19.431028 C.3        1 MOL1         0.0138
      81    H38     20.637743   24.273702   18.894444 H          1 MOL1         0.0794
      82    H39     22.389876   24.405489   18.698466 H          1 MOL1         0.0794
      83    O20     21.539690   25.780181   20.013776 O.3        1 MOL1        -0.5486
      84    H40     22.392125   25.892538   20.490407 H          1 MOL1         0.3769
      85    C25     25.272051   17.671438   21.089456 C.3        1 MOL1         0.2972
      86    H41     25.929769   16.813600   20.898586 H          1 MOL1         0.0751
      87    O21     23.909951   17.260678   21.334497 O.3        1 MOL1        -0.3740
      88    C26     25.770973   18.508959   22.293221 C.3        1 MOL1         0.1003
      89    H42     26.752135   18.920578   22.022477 H          1 MOL1         0.0783
      90    O22     25.907288   17.716313   23.478533 O.3        1 MOL1        -0.5519
      91    H43     26.144112   18.361106   24.183019 H          1 MOL1         0.3769
      92    C27     24.812152   19.693392   22.556765 C.3        1 MOL1         0.1053
      93    H44     23.849404   19.281539   22.888074 H          1 MOL1         0.0783
      94    O23     25.360479   20.519415   23.589776 O.3        1 MOL1        -0.5519
      95    H45     24.599292   21.032636   23.958126 H          1 MOL1         0.3769
      96    C28     24.562775   20.523160   21.265078 C.3        1 MOL1         0.1018
      97    H46     25.427905   21.170709   21.069143 H          1 MOL1         0.0783
      98    C29     24.309733   19.642487   20.009647 C.3        1 MOL1         0.1043
      99    H47     23.293723   19.235567   20.059052 H          1 MOL1         0.0783
     100    O24     25.270303   18.559174   19.952016 O.3        1 MOL1        -0.3740
     101    C30     24.430734   20.454158   18.703933 C.3        1 MOL1         0.0138
     102    H48     25.468236   20.792650   18.580864 H          1 MOL1         0.0794
     103    H49     23.793397   21.346049   18.772642 H          1 MOL1         0.0794
     104    O25     24.026923   19.652458   17.592446 O.3        1 MOL1        -0.5486
     105    H50     24.552304   18.823612   17.648444 H          1 MOL1         0.3769
     106    C31     21.393705   14.061748   21.898397 C.3        1 MOL1         0.2972
     107    H51     20.921917   13.088829   22.085651 H          1 MOL1         0.0751
     108    O26     20.441226   15.029803   21.408260 O.3        1 MOL1        -0.3740
     109    C32     22.038034   14.597090   23.199382 C.3        1 MOL1         0.1003
     110    H52     22.807256   13.874208   23.501137 H          1 MOL1         0.0783
     111    O27     21.075517   14.722819   24.255918 O.3        1 MOL1        -0.5519
     112    H53     21.576459   15.138078   24.992145 H          1 MOL1         0.3769
     113    C33     22.735874   15.952455   22.952467 C.3        1 MOL1         0.1053
     114    H54     21.966685   16.700002   22.727461 H          1 MOL1         0.0783
     115    O28     23.447355   16.327782   24.136590 O.3        1 MOL1        -0.5519
     116    H55     24.193317   16.908999   23.852439 H          1 MOL1         0.3769
     117    C34     23.700002   15.895578   21.740783 C.3        1 MOL1         0.1018
     118    H56     24.633693   15.407008   22.050702 H          1 MOL1         0.0783
     119    C35     23.087365   15.162106   20.513173 C.3        1 MOL1         0.1043
     120    H57     22.341579   15.825994   20.056995 H          1 MOL1         0.0783
     121    O29     22.446842   13.927318   20.920769 O.3        1 MOL1        -0.3740
     122    C36     24.129662   14.818861   19.426014 C.3        1 MOL1         0.0138
     123    H58     24.548520   15.751222   19.024560 H          1 MOL1         0.0794
     124    H59     23.621573   14.306018   18.598389 H          1 MOL1         0.0794
     125    O30     25.174252   13.996250   19.953627 O.3        1 MOL1        -0.5486
     126    H60     24.736032   13.196612   20.321272 H          1 MOL1         0.3769
     127    C1      20.286183   19.497779   19.389980 C.3        1 MOL1        -0.2398
     128    H1      21.157430   19.353110   18.737502 H          1 MOL1         0.0972
     129    H2      19.421749   19.028767   18.901671 H          1 MOL1         0.0972
     130    H3      20.101234   20.576275   19.465770 H          1 MOL1         0.0972
     131    C2      20.540436   18.880652   20.780366 C.3        1 MOL1        -0.1383
     132    H4      21.411665   19.368879   21.231183 H          1 MOL1         0.0961
     133    H5      20.798005   17.819022   20.662455 H          1 MOL1         0.0961
     134    C3      19.315900   19.021356   21.714167 C.3        1 MOL1        -0.1407
     135    H6      19.087185   20.082427   21.882582 H          1 MOL1         0.0961
     136    H7      18.437750   18.595127   21.211842 H          1 MOL1         0.0961
     137    C4      19.511765   18.303118   23.071792 C.3        1 MOL1        -0.1407
     138    H8      19.803131   17.261268   22.890456 H          1 MOL1         0.0961
     139    H9      18.547681   18.265060   23.592929 H          1 MOL1         0.0961
     140    C5      20.552557   18.991061   23.990862 C.3        1 MOL1        -0.1472
     141    H10     21.488157   19.152341   23.443016 H          1 MOL1         0.0961
     142    H11     20.184297   19.983140   24.282142 H          1 MOL1         0.0961
     143    C6      20.876563   18.166642   25.252775 C.3        1 MOL1         0.1190
     144    H12     21.257813   17.192834   24.932820 H          1 MOL1         0.0923
     145    C7      21.972405   18.861983   26.075077 C.3        1 MOL1        -0.2463
     146    H13     22.247443   18.255171   26.946159 H          1 MOL1         0.0972
     147    H14     21.640553   19.845122   26.430637 H          1 MOL1         0.0972
     148    H15     22.878654   19.004316   25.472331 H          1 MOL1         0.0972
     149    N1      19.661513   17.897654   26.097906 N.4        1 MOL1        -0.5974
     150    H16     18.951995   17.378586   25.572903 H          1 MOL1         0.3625
     151    H17     19.899125   17.343394   26.925012 H          1 MOL1         0.3625
     152    H18     19.234513   18.769652   26.421128 H          1 MOL1         0.3625
@<TRIPOS>BOND
    1     1     2    1
    2     1     3    1
    3     1     4    1
    4     4     5    1
    5     4     6    1
    6     6     7    1
    7     4     8    1
    8     8     9    1
    9     8    10    1
   10    10    11    1
   11     8    12    1
   12    12    13    1
   13    12    14    1
   14    14    15    1
   15     1    16    1
   16    14    16    1
   17    14    17    1
   18    17    18    1
   19    17    19    1
   20    17    20    1
   21    20    21    1
   22    22    23    1
   23    22    24    1
   24    22    25    1
   25    25    26    1
   26    25    27    1
   27    27    28    1
   28    25    29    1
   29    29    30    1
   30    29    31    1
   31    31    32    1
   32     3    33    1
   33    29    33    1
   34    33    34    1
   35    33    35    1
   36    35    36    1
   37    22    37    1
   38    35    37    1
   39    35    38    1
   40    38    39    1
   41    38    40    1
   42    38    41    1
   43    41    42    1
   44    43    44    1
   45    43    45    1
   46    43    46    1
   47    46    47    1
   48    46    48    1
   49    48    49    1
   50    46    50    1
   51    50    51    1
   52    50    52    1
   53    52    53    1
   54    24    54    1
   55    50    54    1
   56    54    55    1
   57    54    56    1
   58    56    57    1
   59    43    58    1
   60    56    58    1
   61    56    59    1
   62    59    60    1
   63    59    61    1
   64    59    62    1
   65    62    63    1
   66    64    65    1
   67    64    66    1
   68    64    67    1
   69    67    68    1
   70    67    69    1
   71    69    70    1
   72    67    71    1
   73    71    72    1
   74    71    73    1
   75    73    74    1
   76    45    75    1
   77    71    75    1
   78    75    76    1
   79    75    77    1
   80    77    78    1
   81    64    79    1
   82    77    79    1
   83    77    80    1
   84    80    81    1
   85    80    82    1
   86    80    83    1
   87    83    84    1
   88    85    86    1
   89    85    87    1
   90    85    88    1
   91    88    89    1
   92    88    90    1
   93    90    91    1
   94    88    92    1
   95    92    93    1
   96    92    94    1
   97    94    95    1
   98    66    96    1
   99    92    96    1
  100    96    97    1
  101    96    98    1
  102    98    99    1
  103    85   100    1
  104    98   100    1
  105    98   101    1
  106   101   102    1
  107   101   103    1
  108   101   104    1
  109   104   105    1
  110   106   107    1
  111    12   108    1
  112   106   108    1
  113   106   109    1
  114   109   110    1
  115   109   111    1
  116   111   112    1
  117   109   113    1
  118   113   114    1
  119   113   115    1
  120   115   116    1
  121    87   117    1
  122   113   117    1
  123   117   118    1
  124   117   119    1
  125   119   120    1
  126   106   121    1
  127   119   121    1
  128   119   122    1
  129   122   123    1
  130   122   124    1
  131   122   125    1
  132   125   126    1
  133   127   128    1
  134   127   129    1
  135   127   130    1
  136   127   131    1
  137   131   132    1
  138   131   133    1
  139   131   134    1
  140   134   135    1
  141   134   136    1
  142   134   137    1
  143   137   138    1
  144   137   139    1
  145   137   140    1
  146   140   141    1
  147   140   142    1
  148   140   143    1
  149   143   144    1
  150   143   145    1
  151   145   146    1
  152   145   147    1
  153   145   148    1
  154   143   149    1
  155   149   150    1
  156   149   151    1
  157   149   152    1
@<TRIPOS>SUBSTRUCTURE
       1 MOL1            1 RESIDUE      1      MOL     
       2 MOL1          152 RESIDUE      1      MOL     
@<SCITEGIC>MOL_PROPERTY
VM2 Rank
SciTegic.value.IntegerValue
6

@<SCITEGIC>MOL_PROPERTY
Conf_Id
SciTegic.value.IntegerValue
35036

@<SCITEGIC>MOL_PROPERTY
Probability
SciTegic.value.DoubleValue
2.91

@<SCITEGIC>MOL_PROPERTY
Sum Probability
SciTegic.value.DoubleValue
24.23

@<SCITEGIC>MOL_PROPERTY
Delta G
SciTegic.value.DoubleValue
0.525

@<SCITEGIC>MOL_PROPERTY
G
SciTegic.value.DoubleValue
542.783

@<SCITEGIC>MOL_PROPERTY
E
SciTegic.value.DoubleValue
339.596

@<SCITEGIC>MOL_PROPERTY
-TS
SciTegic.value.DoubleValue
203.187

@<SCITEGIC>MOL_PROPERTY
U+W
SciTegic.value.DoubleValue
205.459

@<SCITEGIC>MOL_PROPERTY
U
SciTegic.value.DoubleValue
285.180

@<SCITEGIC>MOL_PROPERTY
W
SciTegic.value.DoubleValue
-79.721

@<SCITEGIC>MOL_PROPERTY
W(PB)
SciTegic.value.DoubleValue
-85.870

@<SCITEGIC>MOL_PROPERTY
W(SA)
SciTegic.value.DoubleValue
6.149

@<SCITEGIC>MOL_PROPERTY
Valence
SciTegic.value.DoubleValue
145.106

@<SCITEGIC>MOL_PROPERTY
Coulomb
SciTegic.value.DoubleValue
168.069

@<SCITEGIC>MOL_PROPERTY
VdW
SciTegic.value.DoubleValue
-27.994

@<SCITEGIC>MOL_PROPERTY
VdW6
SciTegic.value.DoubleValue
-180.873

@<SCITEGIC>MOL_PROPERTY
VdW12
SciTegic.value.DoubleValue
152.879

@<SCITEGIC>MOL_PROPERTY
Bond
SciTegic.value.DoubleValue
4.230

@<SCITEGIC>MOL_PROPERTY
Angle
SciTegic.value.DoubleValue
10.450

@<SCITEGIC>MOL_PROPERTY
Pdih
SciTegic.value.DoubleValue
130.426

@<SCITEGIC>MOL_PROPERTY
Idih
SciTegic.value.DoubleValue
0.000

@<SCITEGIC>MOL_PROPERTY
Tether
SciTegic.value.DoubleValue
0.000

@<TRIPOS>MOLECULE
CD_guest-s13_vm2_single.mol2 : vm2 host+ligand conformer 7
         152         157           2
SMALL
USER_CHARGES
 
@<TRIPOS>ATOM
       1    C1      16.271507   15.252372   20.855384 C.3        1 MOL1         0.2972
       2    H1      15.233048   15.048017   20.564430 H          1 MOL1         0.0751
       3    O1      16.438820   16.602628   21.326414 O.3        1 MOL1        -0.3740
       4    C2      16.725301   14.291450   21.983318 C.3        1 MOL1         0.1003
       5    H2      16.616285   13.265955   21.607094 H          1 MOL1         0.0783
       6    O2      15.921802   14.455244   23.161011 O.3        1 MOL1        -0.5519
       7    H3      16.360871   13.896242   23.840863 H          1 MOL1         0.3769
       8    C3      18.214413   14.517916   22.337528 C.3        1 MOL1         0.1053
       9    H4      18.299001   15.509111   22.800823 H          1 MOL1         0.0783
      10    O3      18.631752   13.514973   23.270945 O.3        1 MOL1        -0.5519
      11    H5      19.463467   13.854637   23.685637 H          1 MOL1         0.3769
      12    C4      19.108711   14.500968   21.065734 C.3        1 MOL1         0.1018
      13    H6      19.183976   13.476756   20.676412 H          1 MOL1         0.0783
      14    C5      18.538657   15.411580   19.947338 C.3        1 MOL1         0.1043
      15    H7      18.628909   16.459263   20.259830 H          1 MOL1         0.0783
      16    O4      17.150780   15.060843   19.728385 O.3        1 MOL1        -0.3740
      17    C6      19.292170   15.241250   18.609790 C.3        1 MOL1         0.0138
      18    H8      19.007840   14.283084   18.154698 H          1 MOL1         0.0794
      19    H9      20.371502   15.207768   18.806504 H          1 MOL1         0.0794
      20    O5      19.000271   16.329447   17.726843 O.3        1 MOL1        -0.5486
      21    H10     19.470173   16.164330   16.881708 H          1 MOL1         0.3769
      22    C7      14.569141   20.241558   21.552336 C.3        1 MOL1         0.2972
      23    H11     13.894888   21.105236   21.612455 H          1 MOL1         0.0751
      24    O6      15.942774   20.640752   21.371088 O.3        1 MOL1        -0.3740
      25    C8      14.465878   19.393914   22.843364 C.3        1 MOL1         0.1003
      26    H12     13.438587   19.012493   22.909619 H          1 MOL1         0.0783
      27    O7      14.756732   20.179346   24.007417 O.3        1 MOL1        -0.5519
      28    H13     14.840487   19.522203   24.734629 H          1 MOL1         0.3769
      29    C9      15.423199   18.184885   22.769601 C.3        1 MOL1         0.1053
      30    H14     16.448676   18.571789   22.786487 H          1 MOL1         0.0783
      31    O8      15.210692   17.322019   23.893501 O.3        1 MOL1        -0.5519
      32    H15     15.601863   16.446118   23.654398 H          1 MOL1         0.3769
      33    C10     15.237652   17.381692   21.459853 C.3        1 MOL1         0.1018
      34    H16     14.345839   16.749218   21.564544 H          1 MOL1         0.0783
      35    C11     15.114894   18.279472   20.193680 C.3        1 MOL1         0.1043
      36    H17     16.113078   18.666883   19.949683 H          1 MOL1         0.0783
      37    O9      14.211071   19.386470   20.446221 O.3        1 MOL1        -0.3740
      38    C12     14.596326   17.526253   18.948436 C.3        1 MOL1         0.0138
      39    H18     15.328574   16.760938   18.659136 H          1 MOL1         0.0794
      40    H19     14.522424   18.235262   18.112987 H          1 MOL1         0.0794
      41    O10     13.323674   16.923925   19.202255 O.3        1 MOL1        -0.5486
      42    H20     12.722727   17.653308   19.473063 H          1 MOL1         0.3769
      43    C13     18.436999   23.888851   20.810823 C.3        1 MOL1         0.2972
      44    H21     18.882241   24.858191   20.552395 H          1 MOL1         0.0751
      45    O11     19.449812   22.917145   21.147641 O.3        1 MOL1        -0.3740
      46    C14     17.434965   24.035279   21.988165 C.3        1 MOL1         0.1003
      47    H22     16.647790   24.726301   21.659324 H          1 MOL1         0.0783
      48    O12     18.058575   24.564814   23.164755 O.3        1 MOL1        -0.5519
      49    H23     17.356453   24.538145   23.853623 H          1 MOL1         0.3769
      50    C15     16.767610   22.679658   22.316547 C.3        1 MOL1         0.1053
      51    H24     17.539146   22.009189   22.719788 H          1 MOL1         0.0783
      52    O13     15.737500   22.875292   23.292567 O.3        1 MOL1        -0.5519
      53    H25     15.429125   21.974276   23.562345 H          1 MOL1         0.3769
      54    C16     16.173155   22.021668   21.045792 C.3        1 MOL1         0.1018
      55    H26     15.249485   22.540649   20.756473 H          1 MOL1         0.0783
      56    C17     17.155273   22.039213   19.846968 C.3        1 MOL1         0.1043
      57    H27     17.957488   21.317959   20.041452 H          1 MOL1         0.0783
      58    O14     17.697549   23.372993   19.684297 O.3        1 MOL1        -0.3740
      59    C18     16.466045   21.651318   18.522892 C.3        1 MOL1         0.0138
      60    H28     15.717330   22.412703   18.266400 H          1 MOL1         0.0794
      61    H29     15.940458   20.696424   18.651148 H          1 MOL1         0.0794
      62    O15     17.440076   21.533710   17.484700 O.3        1 MOL1        -0.5486
      63    H30     17.953978   22.371295   17.496333 H          1 MOL1         0.3769
      64    C19     23.489512   22.612941   22.048756 C.3        1 MOL1         0.2972
      65    H31     24.529948   22.787853   22.350660 H          1 MOL1         0.0751
      66    O16     23.322079   21.318054   21.435472 O.3        1 MOL1        -0.3740
      67    C20     22.546304   22.725858   23.273371 C.3        1 MOL1         0.1003
      68    H32     22.636790   23.749306   23.660235 H          1 MOL1         0.0783
      69    O17     22.897788   21.803883   24.312813 O.3        1 MOL1        -0.5519
      70    H33     22.138479   21.845511   24.935910 H          1 MOL1         0.3769
      71    C21     21.075925   22.508817   22.855120 C.3        1 MOL1         0.1053
      72    H34     20.964375   21.472295   22.513976 H          1 MOL1         0.0783
      73    O18     20.227287   22.748582   23.983869 O.3        1 MOL1        -0.5519
      74    H35     19.422888   23.206635   23.640973 H          1 MOL1         0.3769
      75    C22     20.682213   23.439313   21.682610 C.3        1 MOL1         0.1018
      76    H36     20.560293   24.460090   22.069715 H          1 MOL1         0.0783
      77    C23     21.738864   23.427205   20.539884 C.3        1 MOL1         0.1043
      78    H37     21.681843   22.457955   20.027156 H          1 MOL1         0.0783
      79    O19     23.069114   23.607997   21.090215 O.3        1 MOL1        -0.3740
      80    C24     21.516720   24.527659   19.478529 C.3        1 MOL1         0.0138
      81    H38     20.571577   24.334288   18.954231 H          1 MOL1         0.0794
      82    H39     22.320513   24.466174   18.732672 H          1 MOL1         0.0794
      83    O20     21.492693   25.826952   20.076393 O.3        1 MOL1        -0.5486
      84    H40     22.352627   25.933077   20.540805 H          1 MOL1         0.3769
      85    C25     25.221491   17.697464   20.996103 C.3        1 MOL1         0.2972
      86    H41     25.874314   16.841119   20.782972 H          1 MOL1         0.0751
      87    O21     23.864572   17.284931   21.266385 O.3        1 MOL1        -0.3740
      88    C26     25.747044   18.523298   22.196582 C.3        1 MOL1         0.1003
      89    H42     26.721827   18.937940   21.907987 H          1 MOL1         0.0783
      90    O22     25.910297   17.719432   23.370810 O.3        1 MOL1        -0.5519
      91    H43     26.161748   18.357688   24.076214 H          1 MOL1         0.3769
      92    C27     24.794052   19.704777   22.492291 C.3        1 MOL1         0.1053
      93    H44     23.837741   19.289966   22.838629 H          1 MOL1         0.0783
      94    O23     25.363549   20.519895   23.522557 O.3        1 MOL1        -0.5519
      95    H45     24.610074   21.029077   23.911809 H          1 MOL1         0.3769
      96    C28     24.519671   20.547580   21.214221 C.3        1 MOL1         0.1018
      97    H46     25.382094   21.195120   21.006648 H          1 MOL1         0.0783
      98    C29     24.238763   19.679684   19.955704 C.3        1 MOL1         0.1043
      99    H47     23.223428   19.273534   20.022046 H          1 MOL1         0.0783
     100    O24     25.196423   18.595863   19.867391 O.3        1 MOL1        -0.3740
     101    C30     24.334197   20.503863   18.655706 C.3        1 MOL1         0.0138
     102    H48     25.368479   20.846218   18.517245 H          1 MOL1         0.0794
     103    H49     23.695928   21.393331   18.744179 H          1 MOL1         0.0794
     104    O25     23.912809   19.711390   17.544133 O.3        1 MOL1        -0.5486
     105    H50     24.438592   18.881955   17.585516 H          1 MOL1         0.3769
     106    C31     21.377133   14.065485   21.871478 C.3        1 MOL1         0.2972
     107    H51     20.918279   13.087516   22.064362 H          1 MOL1         0.0751
     108    O26     20.405468   15.028329   21.410580 O.3        1 MOL1        -0.3740
     109    C32     22.048045   14.600447   23.159216 C.3        1 MOL1         0.1003
     110    H52     22.831947   13.884102   23.437899 H          1 MOL1         0.0783
     111    O27     21.111562   14.711330   24.240472 O.3        1 MOL1        -0.5519
     112    H53     21.625988   15.132658   24.963985 H          1 MOL1         0.3769
     113    C33     22.725461   15.964130   22.901501 C.3        1 MOL1         0.1053
     114    H54     21.943811   16.704156   22.693859 H          1 MOL1         0.0783
     115    O28     23.457118   16.343783   24.071869 O.3        1 MOL1        -0.5519
     116    H55     24.198403   16.923405   23.772792 H          1 MOL1         0.3769
     117    C34     23.664728   15.917552   21.670070 C.3        1 MOL1         0.1018
     118    H56     24.605445   15.428893   21.957827 H          1 MOL1         0.0783
     119    C35     23.027567   15.188607   20.452385 C.3        1 MOL1         0.1043
     120    H57     22.265594   15.850004   20.019580 H          1 MOL1         0.0783
     121    O29     22.407033   13.945957   20.867313 O.3        1 MOL1        -0.3740
     122    C36     24.045405   14.860665   19.337634 C.3        1 MOL1         0.0138
     123    H58     24.446699   15.798913   18.931968 H          1 MOL1         0.0794
     124    H59     23.521197   14.348825   18.519521 H          1 MOL1         0.0794
     125    O30     25.109338   14.043381   19.833977 O.3        1 MOL1        -0.5486
     126    H60     24.686846   13.237748   20.206890 H          1 MOL1         0.3769
     127    C1      20.200391   19.569431   19.369862 C.3        1 MOL1        -0.2398
     128    H1      21.053370   19.412363   18.696720 H          1 MOL1         0.0972
     129    H2      19.311604   19.139085   18.888697 H          1 MOL1         0.0972
     130    H3      20.049342   20.651106   19.469337 H          1 MOL1         0.0972
     131    C2      20.462659   18.915793   20.742236 C.3        1 MOL1        -0.1383
     132    H4      21.348915   19.377880   21.191256 H          1 MOL1         0.0961
     133    H5      20.698847   17.852714   20.595369 H          1 MOL1         0.0961
     134    C3      19.254581   19.054654   21.697830 C.3        1 MOL1        -0.1407
     135    H6      19.040358   20.115161   21.886576 H          1 MOL1         0.0961
     136    H7      18.363448   18.644543   21.204359 H          1 MOL1         0.0961
     137    C4      19.466802   18.313841   23.040336 C.3        1 MOL1        -0.1407
     138    H8      19.761583   17.276913   22.837379 H          1 MOL1         0.0961
     139    H9      18.507360   18.262661   23.569034 H          1 MOL1         0.0961
     140    C5      20.514573   18.991482   23.959515 C.3        1 MOL1        -0.1472
     141    H10     21.442562   19.168258   23.403258 H          1 MOL1         0.0961
     142    H11     20.144216   19.976254   24.272495 H          1 MOL1         0.0961
     143    C6      20.859618   18.147356   25.202771 C.3        1 MOL1         0.1190
     144    H12     21.245721   17.182875   24.861277 H          1 MOL1         0.0923
     145    C7      21.958539   18.837577   26.025251 C.3        1 MOL1        -0.2463
     146    H13     22.248154   18.218052   26.882556 H          1 MOL1         0.0972
     147    H14     21.622465   19.811578   26.401433 H          1 MOL1         0.0972
     148    H15     22.856983   18.997867   25.415370 H          1 MOL1         0.0972
     149    N1      19.656972   17.851975   26.056608 N.4        1 MOL1        -0.5974
     150    H16     18.947419   17.333782   25.531066 H          1 MOL1         0.3625
     151    H17     19.909793   17.286586   26.871606 H          1 MOL1         0.3625
     152    H18     19.224765   18.713955   26.399178 H          1 MOL1         0.3625
@<TRIPOS>BOND
    1     1     2    1
    2     1     3    1
    3     1     4    1
    4     4     5    1
    5     4     6    1
    6     6     7    1
    7     4     8    1
    8     8     9    1
    9     8    10    1
   10    10    11    1
   11     8    12    1
   12    12    13    1
   13    12    14    1
   14    14    15    1
   15     1    16    1
   16    14    16    1
   17    14    17    1
   18    17    18    1
   19    17    19    1
   20    17    20    1
   21    20    21    1
   22    22    23    1
   23    22    24    1
   24    22    25    1
   25    25    26    1
   26    25    27    1
   27    27    28    1
   28    25    29    1
   29    29    30    1
   30    29    31    1
   31    31    32    1
   32     3    33    1
   33    29    33    1
   34    33    34    1
   35    33    35    1
   36    35    36    1
   37    22    37    1
   38    35    37    1
   39    35    38    1
   40    38    39    1
   41    38    40    1
   42    38    41    1
   43    41    42    1
   44    43    44    1
   45    43    45    1
   46    43    46    1
   47    46    47    1
   48    46    48    1
   49    48    49    1
   50    46    50    1
   51    50    51    1
   52    50    52    1
   53    52    53    1
   54    24    54    1
   55    50    54    1
   56    54    55    1
   57    54    56    1
   58    56    57    1
   59    43    58    1
   60    56    58    1
   61    56    59    1
   62    59    60    1
   63    59    61    1
   64    59    62    1
   65    62    63    1
   66    64    65    1
   67    64    66    1
   68    64    67    1
   69    67    68    1
   70    67    69    1
   71    69    70    1
   72    67    71    1
   73    71    72    1
   74    71    73    1
   75    73    74    1
   76    45    75    1
   77    71    75    1
   78    75    76    1
   79    75    77    1
   80    77    78    1
   81    64    79    1
   82    77    79    1
   83    77    80    1
   84    80    81    1
   85    80    82    1
   86    80    83    1
   87    83    84    1
   88    85    86    1
   89    85    87    1
   90    85    88    1
   91    88    89    1
   92    88    90    1
   93    90    91    1
   94    88    92    1
   95    92    93    1
   96    92    94    1
   97    94    95    1
   98    66    96    1
   99    92    96    1
  100    96    97    1
  101    96    98    1
  102    98    99    1
  103    85   100    1
  104    98   100    1
  105    98   101    1
  106   101   102    1
  107   101   103    1
  108   101   104    1
  109   104   105    1
  110   106   107    1
  111    12   108    1
  112   106   108    1
  113   106   109    1
  114   109   110    1
  115   109   111    1
  116   111   112    1
  117   109   113    1
  118   113   114    1
  119   113   115    1
  120   115   116    1
  121    87   117    1
  122   113   117    1
  123   117   118    1
  124   117   119    1
  125   119   120    1
  126   106   121    1
  127   119   121    1
  128   119   122    1
  129   122   123    1
  130   122   124    1
  131   122   125    1
  132   125   126    1
  133   127   128    1
  134   127   129    1
  135   127   130    1
  136   127   131    1
  137   131   132    1
  138   131   133    1
  139   131   134    1
  140   134   135    1
  141   134   136    1
  142   134   137    1
  143   137   138    1
  144   137   139    1
  145   137   140    1
  146   140   141    1
  147   140   142    1
  148   140   143    1
  149   143   144    1
  150   143   145    1
  151   145   146    1
  152   145   147    1
  153   145   148    1
  154   143   149    1
  155   149   150    1
  156   149   151    1
  157   149   152    1
@<TRIPOS>SUBSTRUCTURE
       1 MOL1            1 RESIDUE      1      MOL     
       2 MOL1          152 RESIDUE      1      MOL     
@<SCITEGIC>MOL_PROPERTY
VM2 Rank
SciTegic.value.IntegerValue
7

@<SCITEGIC>MOL_PROPERTY
Conf_Id
SciTegic.value.IntegerValue
30807

@<SCITEGIC>MOL_PROPERTY
Probability
SciTegic.value.DoubleValue
2.23

@<SCITEGIC>MOL_PROPERTY
Sum Probability
SciTegic.value.DoubleValue
26.46

@<SCITEGIC>MOL_PROPERTY
Delta G
SciTegic.value.DoubleValue
0.685

@<SCITEGIC>MOL_PROPERTY
G
SciTegic.value.DoubleValue
542.942

@<SCITEGIC>MOL_PROPERTY
E
SciTegic.value.DoubleValue
340.185

@<SCITEGIC>MOL_PROPERTY
-TS
SciTegic.value.DoubleValue
202.758

@<SCITEGIC>MOL_PROPERTY
U+W
SciTegic.value.DoubleValue
206.048

@<SCITEGIC>MOL_PROPERTY
U
SciTegic.value.DoubleValue
285.915

@<SCITEGIC>MOL_PROPERTY
W
SciTegic.value.DoubleValue
-79.867

@<SCITEGIC>MOL_PROPERTY
W(PB)
SciTegic.value.DoubleValue
-85.999

@<SCITEGIC>MOL_PROPERTY
W(SA)
SciTegic.value.DoubleValue
6.131

@<SCITEGIC>MOL_PROPERTY
Valence
SciTegic.value.DoubleValue
144.830

@<SCITEGIC>MOL_PROPERTY
Coulomb
SciTegic.value.DoubleValue
169.944

@<SCITEGIC>MOL_PROPERTY
VdW
SciTegic.value.DoubleValue
-28.859

@<SCITEGIC>MOL_PROPERTY
VdW6
SciTegic.value.DoubleValue
-180.504

@<SCITEGIC>MOL_PROPERTY
VdW12
SciTegic.value.DoubleValue
151.645

@<SCITEGIC>MOL_PROPERTY
Bond
SciTegic.value.DoubleValue
4.163

@<SCITEGIC>MOL_PROPERTY
Angle
SciTegic.value.DoubleValue
10.151

@<SCITEGIC>MOL_PROPERTY
Pdih
SciTegic.value.DoubleValue
130.516

@<SCITEGIC>MOL_PROPERTY
Idih
SciTegic.value.DoubleValue
0.000

@<SCITEGIC>MOL_PROPERTY
Tether
SciTegic.value.DoubleValue
0.000

@<TRIPOS>MOLECULE
CD_guest-s13_vm2_single.mol2 : vm2 host+ligand conformer 8
         152         157           2
SMALL
USER_CHARGES
 
@<TRIPOS>ATOM
       1    C1      16.338065   15.261855   20.779684 C.3        1 MOL1         0.2972
       2    H1      15.309127   15.053111   20.459350 H          1 MOL1         0.0751
       3    O1      16.490244   16.621593   21.228327 O.3        1 MOL1        -0.3740
       4    C2      16.761823   14.314792   21.932403 C.3        1 MOL1         0.1003
       5    H2      16.674917   13.285292   21.561326 H          1 MOL1         0.0783
       6    O2      15.919743   14.477038   23.082129 O.3        1 MOL1        -0.5519
       7    H3      16.338094   13.919505   23.776402 H          1 MOL1         0.3769
       8    C3      18.236551   14.557201   22.332836 C.3        1 MOL1         0.1053
       9    H4      18.301183   15.558392   22.777562 H          1 MOL1         0.0783
      10    O3      18.629922   13.576246   23.299545 O.3        1 MOL1        -0.5519
      11    H5      19.453236   13.923309   23.724815 H          1 MOL1         0.3769
      12    C4      19.169681   14.517615   21.090785 C.3        1 MOL1         0.1018
      13    H6      19.256441   13.486291   20.723137 H          1 MOL1         0.0783
      14    C5      18.633400   15.406646   19.939624 C.3        1 MOL1         0.1043
      15    H7      18.718334   16.460732   20.232187 H          1 MOL1         0.0783
      16    O4      17.250949   15.058282   19.680269 O.3        1 MOL1        -0.3740
      17    C6      19.417871   15.204489   18.626795 C.3        1 MOL1         0.0138
      18    H8      19.284959   14.171403   18.278919 H          1 MOL1         0.0794
      19    H9      20.488626   15.358876   18.812626 H          1 MOL1         0.0794
      20    O5      18.957773   16.130609   17.641006 O.3        1 MOL1        -0.5486
      21    H10     17.982162   16.023259   17.601140 H          1 MOL1         0.3769
      22    C7      14.594631   20.218473   21.587100 C.3        1 MOL1         0.2972
      23    H11     13.931806   21.087364   21.687152 H          1 MOL1         0.0751
      24    O6      15.957120   20.606356   21.314861 O.3        1 MOL1        -0.3740
      25    C8      14.567338   19.370837   22.881401 C.3        1 MOL1         0.1003
      26    H12     13.547463   18.983576   23.004372 H          1 MOL1         0.0783
      27    O7      14.918130   20.155843   24.028859 O.3        1 MOL1        -0.5519
      28    H13     15.050246   19.496907   24.747284 H          1 MOL1         0.3769
      29    C9      15.525589   18.167438   22.752026 C.3        1 MOL1         0.1053
      30    H14     16.546382   18.562922   22.710574 H          1 MOL1         0.0783
      31    O8      15.384783   17.308508   23.889734 O.3        1 MOL1        -0.5519
      32    H15     15.722708   16.420460   23.617204 H          1 MOL1         0.3769
      33    C10     15.275968   17.360540   21.453535 C.3        1 MOL1         0.1018
      34    H16     14.414447   16.698476   21.614645 H          1 MOL1         0.0783
      35    C11     15.043761   18.253651   20.198484 C.3        1 MOL1         0.1043
      36    H17     16.017507   18.644733   19.874698 H          1 MOL1         0.0783
      37    O9      14.158921   19.360293   20.511995 O.3        1 MOL1        -0.3740
      38    C12     14.434823   17.489904   19.001697 C.3        1 MOL1         0.0138
      39    H18     15.146951   16.726340   18.662499 H          1 MOL1         0.0794
      40    H19     14.291858   18.193027   18.170196 H          1 MOL1         0.0794
      41    O10     13.189993   16.881193   19.356388 O.3        1 MOL1        -0.5486
      42    H20     12.606153   17.608307   19.667871 H          1 MOL1         0.3769
      43    C13     18.442135   23.863608   20.758319 C.3        1 MOL1         0.2972
      44    H21     18.886160   24.831982   20.494187 H          1 MOL1         0.0751
      45    O11     19.455322   22.901056   21.120222 O.3        1 MOL1        -0.3740
      46    C14     17.423188   24.019158   21.919738 C.3        1 MOL1         0.1003
      47    H22     16.636586   24.700995   21.570937 H          1 MOL1         0.0783
      48    O12     18.027282   24.568502   23.097387 O.3        1 MOL1        -0.5519
      49    H23     17.315694   24.547139   23.776678 H          1 MOL1         0.3769
      50    C15     16.758899   22.664004   22.256943 C.3        1 MOL1         0.1053
      51    H24     17.529362   22.002675   22.677032 H          1 MOL1         0.0783
      52    O13     15.718501   22.868200   23.220039 O.3        1 MOL1        -0.5519
      53    H25     15.447392   21.970053   23.535302 H          1 MOL1         0.3769
      54    C16     16.182911   21.987427   20.986404 C.3        1 MOL1         0.1018
      55    H26     15.259236   22.495358   20.678059 H          1 MOL1         0.0783
      56    C17     17.180591   21.997597   19.800168 C.3        1 MOL1         0.1043
      57    H27     17.983564   21.282037   20.012750 H          1 MOL1         0.0783
      58    O14     17.719674   23.331397   19.628580 O.3        1 MOL1        -0.3740
      59    C18     16.509160   21.591770   18.472273 C.3        1 MOL1         0.0138
      60    H28     15.768308   22.352686   18.192544 H          1 MOL1         0.0794
      61    H29     15.976284   20.641940   18.608200 H          1 MOL1         0.0794
      62    O15     17.497701   21.452290   17.450596 O.3        1 MOL1        -0.5486
      63    H30     18.013165   22.288984   17.452979 H          1 MOL1         0.3769
      64    C19     23.483794   22.633065   22.091632 C.3        1 MOL1         0.2972
      65    H31     24.517412   22.820990   22.408802 H          1 MOL1         0.0751
      66    O16     23.337463   21.327181   21.496384 O.3        1 MOL1        -0.3740
      67    C20     22.519096   22.758167   23.298164 C.3        1 MOL1         0.1003
      68    H32     22.596624   23.787884   23.670954 H          1 MOL1         0.0783
      69    O17     22.858622   21.854361   24.357231 O.3        1 MOL1        -0.5519
      70    H33     22.088972   21.901413   24.967133 H          1 MOL1         0.3769
      71    C21     21.057342   22.525288   22.858982 C.3        1 MOL1         0.1053
      72    H34     20.958405   21.483471   22.530813 H          1 MOL1         0.0783
      73    O18     20.189035   22.775009   23.970432 O.3        1 MOL1        -0.5519
      74    H35     19.388641   23.225672   23.608898 H          1 MOL1         0.3769
      75    C22     20.677317   23.436116   21.666798 C.3        1 MOL1         0.1018
      76    H36     20.545432   24.462124   22.036425 H          1 MOL1         0.0783
      77    C23     21.752280   23.411075   20.541550 C.3        1 MOL1         0.1043
      78    H37     21.709315   22.432948   20.044544 H          1 MOL1         0.0783
      79    O19     23.072464   23.609390   21.110041 O.3        1 MOL1        -0.3740
      80    C24     21.540459   24.492250   19.458519 C.3        1 MOL1         0.0138
      81    H38     20.604270   24.284942   18.923561 H          1 MOL1         0.0794
      82    H39     22.355710   24.422635   18.725930 H          1 MOL1         0.0794
      83    O20     21.500625   25.801226   20.034011 O.3        1 MOL1        -0.5486
      84    H40     22.352715   25.919607   20.509781 H          1 MOL1         0.3769
      85    C25     25.282444   17.722004   21.118645 C.3        1 MOL1         0.2972
      86    H41     25.952218   16.874532   20.926489 H          1 MOL1         0.0751
      87    O21     23.923890   17.291893   21.353670 O.3        1 MOL1        -0.3740
      88    C26     25.771536   18.560948   22.325002 C.3        1 MOL1         0.1003
      89    H42     26.746447   18.986959   22.053762 H          1 MOL1         0.0783
      90    O22     25.923570   17.764463   23.505206 O.3        1 MOL1        -0.5519
      91    H43     26.154237   18.408926   24.212203 H          1 MOL1         0.3769
      92    C27     24.798685   19.732144   22.593858 C.3        1 MOL1         0.1053
      93    H44     23.839460   19.308127   22.919956 H          1 MOL1         0.0783
      94    O23     25.336081   20.558389   23.632365 O.3        1 MOL1        -0.5519
      95    H45     24.571221   21.070446   23.994753 H          1 MOL1         0.3769
      96    C28     24.545931   20.565502   21.305341 C.3        1 MOL1         0.1018
      97    H46     25.407509   21.219055   21.113621 H          1 MOL1         0.0783
      98    C29     24.302080   19.687892   20.045656 C.3        1 MOL1         0.1043
      99    H47     23.289613   19.271614   20.091497 H          1 MOL1         0.0783
     100    O24     25.273228   18.613597   19.984707 O.3        1 MOL1        -0.3740
     101    C30     24.418448   20.506468   18.743825 C.3        1 MOL1         0.0138
     102    H48     25.454203   20.850744   18.622148 H          1 MOL1         0.0794
     103    H49     23.776641   21.394803   18.816837 H          1 MOL1         0.0794
     104    O25     24.018397   19.708296   17.628521 O.3        1 MOL1        -0.5486
     105    H50     24.536999   18.875256   17.687572 H          1 MOL1         0.3769
     106    C31     21.413708   14.090559   21.958063 C.3        1 MOL1         0.2972
     107    H51     20.947957   13.116624   22.154928 H          1 MOL1         0.0751
     108    O26     20.454494   15.050927   21.467002 O.3        1 MOL1        -0.3740
     109    C32     22.063886   14.637282   23.250209 C.3        1 MOL1         0.1003
     110    H52     22.833405   13.916029   23.555058 H          1 MOL1         0.0783
     111    O27     21.105523   14.772412   24.309526 O.3        1 MOL1        -0.5519
     112    H53     21.610976   15.187466   25.042678 H          1 MOL1         0.3769
     113    C33     22.762885   15.989393   22.987279 C.3        1 MOL1         0.1053
     114    H54     21.992335   16.737375   22.767290 H          1 MOL1         0.0783
     115    O28     23.485420   16.366624   24.163662 O.3        1 MOL1        -0.5519
     116    H55     24.221858   16.957142   23.874595 H          1 MOL1         0.3769
     117    C34     23.714673   15.927001   21.764053 C.3        1 MOL1         0.1018
     118    H56     24.650403   15.432950   22.059046 H          1 MOL1         0.0783
     119    C35     23.083430   15.193254   20.546805 C.3        1 MOL1         0.1043
     120    H57     22.333771   15.854243   20.092326 H          1 MOL1         0.0783
     121    O29     22.462786   13.955665   20.977424 O.3        1 MOL1        -0.3740
     122    C36     24.125029   14.837299   19.466203 C.3        1 MOL1         0.0138
     123    H58     24.876835   14.160931   19.894577 H          1 MOL1         0.0794
     124    H59     24.639330   15.751361   19.141397 H          1 MOL1         0.0794
     125    O30     23.476933   14.224449   18.350080 O.3        1 MOL1        -0.5486
     126    H60     22.931944   13.494629   18.720888 H          1 MOL1         0.3769
     127    C1      20.266595   19.536858   19.399715 C.3        1 MOL1        -0.2398
     128    H1      21.131567   19.386688   18.740269 H          1 MOL1         0.0972
     129    H2      19.393302   19.081164   18.913863 H          1 MOL1         0.0972
     130    H3      20.092223   20.616690   19.479729 H          1 MOL1         0.0972
     131    C2      20.524249   18.910994   20.785894 C.3        1 MOL1        -0.1383
     132    H4      21.396903   19.396190   21.236953 H          1 MOL1         0.0961
     133    H5      20.781170   17.850044   20.660123 H          1 MOL1         0.0961
     134    C3      19.303082   19.045487   21.725164 C.3        1 MOL1        -0.1407
     135    H6      19.072237   20.105337   21.897617 H          1 MOL1         0.0961
     136    H7      18.423950   18.618081   21.225181 H          1 MOL1         0.0961
     137    C4      19.507880   18.324184   23.079808 C.3        1 MOL1        -0.1407
     138    H8      19.812874   17.287086   22.893913 H          1 MOL1         0.0961
     139    H9      18.544256   18.271599   23.600558 H          1 MOL1         0.0961
     140    C5      20.539890   19.021820   24.001603 C.3        1 MOL1        -0.1472
     141    H10     21.471117   19.202665   23.452398 H          1 MOL1         0.0961
     142    H11     20.156350   20.005640   24.301359 H          1 MOL1         0.0961
     143    C6      20.880927   18.193211   25.256324 C.3        1 MOL1         0.1190
     144    H12     21.279412   17.229382   24.927783 H          1 MOL1         0.0923
     145    C7      21.965495   18.901014   26.082801 C.3        1 MOL1        -0.2463
     146    H13     22.252006   18.292356   26.948889 H          1 MOL1         0.0972
     147    H14     21.617105   19.875499   26.446284 H          1 MOL1         0.0972
     148    H15     22.868492   19.063499   25.480312 H          1 MOL1         0.0972
     149    N1      19.672564   17.894234   26.100860 N.4        1 MOL1        -0.5974
     150    H16     18.973341   17.364264   25.572968 H          1 MOL1         0.3625
     151    H17     19.922263   17.339108   26.923812 H          1 MOL1         0.3625
     152    H18     19.228420   18.755166   26.430552 H          1 MOL1         0.3625
@<TRIPOS>BOND
    1     1     2    1
    2     1     3    1
    3     1     4    1
    4     4     5    1
    5     4     6    1
    6     6     7    1
    7     4     8    1
    8     8     9    1
    9     8    10    1
   10    10    11    1
   11     8    12    1
   12    12    13    1
   13    12    14    1
   14    14    15    1
   15     1    16    1
   16    14    16    1
   17    14    17    1
   18    17    18    1
   19    17    19    1
   20    17    20    1
   21    20    21    1
   22    22    23    1
   23    22    24    1
   24    22    25    1
   25    25    26    1
   26    25    27    1
   27    27    28    1
   28    25    29    1
   29    29    30    1
   30    29    31    1
   31    31    32    1
   32     3    33    1
   33    29    33    1
   34    33    34    1
   35    33    35    1
   36    35    36    1
   37    22    37    1
   38    35    37    1
   39    35    38    1
   40    38    39    1
   41    38    40    1
   42    38    41    1
   43    41    42    1
   44    43    44    1
   45    43    45    1
   46    43    46    1
   47    46    47    1
   48    46    48    1
   49    48    49    1
   50    46    50    1
   51    50    51    1
   52    50    52    1
   53    52    53    1
   54    24    54    1
   55    50    54    1
   56    54    55    1
   57    54    56    1
   58    56    57    1
   59    43    58    1
   60    56    58    1
   61    56    59    1
   62    59    60    1
   63    59    61    1
   64    59    62    1
   65    62    63    1
   66    64    65    1
   67    64    66    1
   68    64    67    1
   69    67    68    1
   70    67    69    1
   71    69    70    1
   72    67    71    1
   73    71    72    1
   74    71    73    1
   75    73    74    1
   76    45    75    1
   77    71    75    1
   78    75    76    1
   79    75    77    1
   80    77    78    1
   81    64    79    1
   82    77    79    1
   83    77    80    1
   84    80    81    1
   85    80    82    1
   86    80    83    1
   87    83    84    1
   88    85    86    1
   89    85    87    1
   90    85    88    1
   91    88    89    1
   92    88    90    1
   93    90    91    1
   94    88    92    1
   95    92    93    1
   96    92    94    1
   97    94    95    1
   98    66    96    1
   99    92    96    1
  100    96    97    1
  101    96    98    1
  102    98    99    1
  103    85   100    1
  104    98   100    1
  105    98   101    1
  106   101   102    1
  107   101   103    1
  108   101   104    1
  109   104   105    1
  110   106   107    1
  111    12   108    1
  112   106   108    1
  113   106   109    1
  114   109   110    1
  115   109   111    1
  116   111   112    1
  117   109   113    1
  118   113   114    1
  119   113   115    1
  120   115   116    1
  121    87   117    1
  122   113   117    1
  123   117   118    1
  124   117   119    1
  125   119   120    1
  126   106   121    1
  127   119   121    1
  128   119   122    1
  129   122   123    1
  130   122   124    1
  131   122   125    1
  132   125   126    1
  133   127   128    1
  134   127   129    1
  135   127   130    1
  136   127   131    1
  137   131   132    1
  138   131   133    1
  139   131   134    1
  140   134   135    1
  141   134   136    1
  142   134   137    1
  143   137   138    1
  144   137   139    1
  145   137   140    1
  146   140   141    1
  147   140   142    1
  148   140   143    1
  149   143   144    1
  150   143   145    1
  151   145   146    1
  152   145   147    1
  153   145   148    1
  154   143   149    1
  155   149   150    1
  156   149   151    1
  157   149   152    1
@<TRIPOS>SUBSTRUCTURE
       1 MOL1            1 RESIDUE      1      MOL     
       2 MOL1          152 RESIDUE      1      MOL     
@<SCITEGIC>MOL_PROPERTY
VM2 Rank
SciTegic.value.IntegerValue
8

@<SCITEGIC>MOL_PROPERTY
Conf_Id
SciTegic.value.IntegerValue
36530

@<SCITEGIC>MOL_PROPERTY
Probability
SciTegic.value.DoubleValue
2.09

@<SCITEGIC>MOL_PROPERTY
Sum Probability
SciTegic.value.DoubleValue
28.55

@<SCITEGIC>MOL_PROPERTY
Delta G
SciTegic.value.DoubleValue
0.722

@<SCITEGIC>MOL_PROPERTY
G
SciTegic.value.DoubleValue
542.980

@<SCITEGIC>MOL_PROPERTY
E
SciTegic.value.DoubleValue
340.115

@<SCITEGIC>MOL_PROPERTY
-TS
SciTegic.value.DoubleValue
202.865

@<SCITEGIC>MOL_PROPERTY
U+W
SciTegic.value.DoubleValue
205.979

@<SCITEGIC>MOL_PROPERTY
U
SciTegic.value.DoubleValue
286.996

@<SCITEGIC>MOL_PROPERTY
W
SciTegic.value.DoubleValue
-81.017

@<SCITEGIC>MOL_PROPERTY
W(PB)
SciTegic.value.DoubleValue
-87.128

@<SCITEGIC>MOL_PROPERTY
W(SA)
SciTegic.value.DoubleValue
6.111

@<SCITEGIC>MOL_PROPERTY
Valence
SciTegic.value.DoubleValue
145.774

@<SCITEGIC>MOL_PROPERTY
Coulomb
SciTegic.value.DoubleValue
170.064

@<SCITEGIC>MOL_PROPERTY
VdW
SciTegic.value.DoubleValue
-28.842

@<SCITEGIC>MOL_PROPERTY
VdW6
SciTegic.value.DoubleValue
-180.323

@<SCITEGIC>MOL_PROPERTY
VdW12
SciTegic.value.DoubleValue
151.482

@<SCITEGIC>MOL_PROPERTY
Bond
SciTegic.value.DoubleValue
4.173

@<SCITEGIC>MOL_PROPERTY
Angle
SciTegic.value.DoubleValue
10.294

@<SCITEGIC>MOL_PROPERTY
Pdih
SciTegic.value.DoubleValue
131.307

@<SCITEGIC>MOL_PROPERTY
Idih
SciTegic.value.DoubleValue
0.000

@<SCITEGIC>MOL_PROPERTY
Tether
SciTegic.value.DoubleValue
0.000

