@<TRIPOS>MOLECULE
CD_guest-s22_vm2_single.mol2 : vm2 host+ligand conformer 1
         146         151           2
SMALL
USER_CHARGES
 
@<TRIPOS>ATOM
       1    C1      16.230082   15.082371   20.429903 C.3        1 MOL1         0.2972
       2    H1      15.191952   14.981413   20.088121 H          1 MOL1         0.0751
       3    O1      16.533662   16.441517   20.811228 O.3        1 MOL1        -0.3740
       4    C2      16.529018   14.123811   21.612346 C.3        1 MOL1         0.1003
       5    H2      16.434668   13.099445   21.229906 H          1 MOL1         0.0783
       6    O2      15.582510   14.301815   22.676703 O.3        1 MOL1        -0.5519
       7    H3      15.782141   15.177229   23.092018 H          1 MOL1         0.3769
       8    C3      17.992466   14.315996   22.093098 C.3        1 MOL1         0.1053
       9    H4      18.080279   15.322411   22.525606 H          1 MOL1         0.0783
      10    O3      18.326349   13.335848   23.082783 O.3        1 MOL1        -0.5519
      11    H5      19.098838   13.703451   23.578565 H          1 MOL1         0.3769
      12    C4      18.990577   14.208763   20.904405 C.3        1 MOL1         0.1018
      13    H6      19.124624   13.152464   20.635231 H          1 MOL1         0.0783
      14    C5      18.537304   14.981126   19.635408 C.3        1 MOL1         0.1043
      15    H7      18.698990   16.055217   19.792273 H          1 MOL1         0.0783
      16    O4      17.137094   14.716943   19.369667 O.3        1 MOL1        -0.3740
      17    C6      19.340216   14.551234   18.390018 C.3        1 MOL1         0.0138
      18    H8      19.140972   13.492140   18.178765 H          1 MOL1         0.0794
      19    H9      20.413549   14.654732   18.597815 H          1 MOL1         0.0794
      20    O5      18.980084   15.361377   17.269993 O.3        1 MOL1        -0.5486
      21    H10     17.997332   15.366426   17.243543 H          1 MOL1         0.3769
      22    C7      14.940758   20.078152   21.872645 C.3        1 MOL1         0.2972
      23    H11     14.322595   20.931921   22.177065 H          1 MOL1         0.0751
      24    O6      16.226882   20.502498   21.372081 O.3        1 MOL1        -0.3740
      25    C8      15.171225   19.130120   23.075068 C.3        1 MOL1         0.1003
      26    H12     14.189378   18.757236   23.393979 H          1 MOL1         0.0783
      27    O7      15.769439   19.862425   24.158834 O.3        1 MOL1        -0.5519
      28    H13     16.311699   19.230426   24.698293 H          1 MOL1         0.3769
      29    C9      16.025341   17.906258   22.649188 C.3        1 MOL1         0.1053
      30    H14     17.042904   18.254263   22.431749 H          1 MOL1         0.0783
      31    O8      16.054540   16.939978   23.707121 O.3        1 MOL1        -0.5519
      32    H15     16.624389   17.317208   24.426986 H          1 MOL1         0.3769
      33    C10     15.464387   17.230488   21.367216 C.3        1 MOL1         0.1018
      34    H16     14.599944   16.612797   21.644408 H          1 MOL1         0.0783
      35    C11     15.053275   18.245950   20.265112 C.3        1 MOL1         0.1043
      36    H17     15.969477   18.650503   19.816148 H          1 MOL1         0.0783
      37    O9      14.275978   19.323194   20.839561 O.3        1 MOL1        -0.3740
      38    C12     14.219408   17.616825   19.126884 C.3        1 MOL1         0.0138
      39    H18     14.834315   16.874594   18.600928 H          1 MOL1         0.0794
      40    H19     13.964509   18.401704   18.402098 H          1 MOL1         0.0794
      41    O10     13.030355   17.003294   19.633081 O.3        1 MOL1        -0.5486
      42    H20     12.545022   17.705938   20.120282 H          1 MOL1         0.3769
      43    C13     18.454857   24.013143   21.011216 C.3        1 MOL1         0.2972
      44    H21     18.794751   25.031303   20.782772 H          1 MOL1         0.0751
      45    O11     19.540582   23.168807   21.436655 O.3        1 MOL1        -0.3740
      46    C14     17.390141   24.031312   22.137819 C.3        1 MOL1         0.1003
      47    H22     16.547939   24.641466   21.786513 H          1 MOL1         0.0783
      48    O12     17.918384   24.601055   23.344036 O.3        1 MOL1        -0.5519
      49    H23     17.226282   24.428329   24.021507 H          1 MOL1         0.3769
      50    C15     16.861890   22.604830   22.423079 C.3        1 MOL1         0.1053
      51    H24     17.691369   22.017698   22.838671 H          1 MOL1         0.0783
      52    O13     15.799624   22.679075   23.381434 O.3        1 MOL1        -0.5519
      53    H25     15.715634   21.768341   23.760226 H          1 MOL1         0.3769
      54    C16     16.386701   21.910913   21.115543 C.3        1 MOL1         0.1018
      55    H26     15.447078   22.362924   20.771316 H          1 MOL1         0.0783
      56    C17     17.447560   22.030885   19.989235 C.3        1 MOL1         0.1043
      57    H27     18.311677   21.411141   20.262258 H          1 MOL1         0.0783
      58    O14     17.855043   23.413688   19.844032 O.3        1 MOL1        -0.3740
      59    C18     16.935693   21.550549   18.613200 C.3        1 MOL1         0.0138
      60    H28     16.645835   20.494772   18.685198 H          1 MOL1         0.0794
      61    H29     17.759402   21.614982   17.889815 H          1 MOL1         0.0794
      62    O15     15.826277   22.339180   18.172704 O.3        1 MOL1        -0.5486
      63    H30     16.125174   23.274660   18.216114 H          1 MOL1         0.3769
      64    C19     23.638536   22.897847   21.667086 C.3        1 MOL1         0.2972
      65    H31     24.723578   23.054752   21.711329 H          1 MOL1         0.0751
      66    O16     23.300250   21.498673   21.589596 O.3        1 MOL1        -0.3740
      67    C20     22.963852   23.502637   22.922693 C.3        1 MOL1         0.1003
      68    H32     23.163533   24.582077   22.915519 H          1 MOL1         0.0783
      69    O17     23.494452   22.933192   24.127277 O.3        1 MOL1        -0.5519
      70    H33     22.882087   23.237198   24.834627 H          1 MOL1         0.3769
      71    C21     21.432726   23.301741   22.871462 C.3        1 MOL1         0.1053
      72    H34     21.227710   22.228298   22.973104 H          1 MOL1         0.0783
      73    O18     20.816635   24.020386   23.947140 O.3        1 MOL1        -0.5519
      74    H35     19.846776   24.039440   23.754411 H          1 MOL1         0.3769
      75    C22     20.837891   23.783230   21.525455 C.3        1 MOL1         0.1018
      76    H36     20.775301   24.879336   21.546788 H          1 MOL1         0.0783
      77    C23     21.661915   23.322090   20.289571 C.3        1 MOL1         0.1043
      78    H37     21.486473   22.248843   20.138487 H          1 MOL1         0.0783
      79    O19     23.074654   23.558215   20.514588 O.3        1 MOL1        -0.3740
      80    C24     21.270534   24.048137   18.983539 C.3        1 MOL1         0.0138
      81    H38     20.229695   23.805223   18.733775 H          1 MOL1         0.0794
      82    H39     21.898700   23.667242   18.167189 H          1 MOL1         0.0794
      83    O20     21.430616   25.463903   19.113118 O.3        1 MOL1        -0.5486
      84    H40     22.367839   25.610652   19.371242 H          1 MOL1         0.3769
      85    C25     24.915358   17.701255   21.152405 C.3        1 MOL1         0.2972
      86    H41     25.559762   16.839047   20.937888 H          1 MOL1         0.0751
      87    O21     23.562917   17.292206   21.434528 O.3        1 MOL1        -0.3740
      88    C26     25.464056   18.516419   22.353950 C.3        1 MOL1         0.1003
      89    H42     26.471577   18.857524   22.082486 H          1 MOL1         0.0783
      90    O22     25.542303   17.722804   23.545088 O.3        1 MOL1        -0.5519
      91    H43     25.798968   18.357982   24.251190 H          1 MOL1         0.3769
      92    C27     24.595185   19.768143   22.619674 C.3        1 MOL1         0.1053
      93    H44     23.610598   19.432330   22.973669 H          1 MOL1         0.0783
      94    O23     25.220662   20.580785   23.620557 O.3        1 MOL1        -0.5519
      95    H45     24.601026   21.330895   23.803010 H          1 MOL1         0.3769
      96    C28     24.386874   20.593543   21.325808 C.3        1 MOL1         0.1018
      97    H46     25.316393   21.123342   21.078987 H          1 MOL1         0.0783
      98    C29     23.973597   19.710617   20.118523 C.3        1 MOL1         0.1043
      99    H47     22.946648   19.357694   20.277901 H          1 MOL1         0.0783
     100    O24     24.875099   18.580582   20.009192 O.3        1 MOL1        -0.3740
     101    C30     24.011272   20.469331   18.773810 C.3        1 MOL1         0.0138
     102    H48     23.321545   21.321608   18.822295 H          1 MOL1         0.0794
     103    H49     23.650095   19.799241   17.982410 H          1 MOL1         0.0794
     104    O25     25.335526   20.921659   18.475400 O.3        1 MOL1        -0.5486
     105    H50     25.911197   20.126554   18.528242 H          1 MOL1         0.3769
     106    C31     21.212935   13.926377   21.895587 C.3        1 MOL1         0.2972
     107    H51     20.800800   12.926098   22.079551 H          1 MOL1         0.0751
     108    O26     20.233029   14.809247   21.314044 O.3        1 MOL1        -0.3740
     109    C32     21.731242   14.543146   23.218089 C.3        1 MOL1         0.1003
     110    H52     22.534706   13.892662   23.587519 H          1 MOL1         0.0783
     111    O27     20.699242   14.617427   24.210576 O.3        1 MOL1        -0.5519
     112    H53     21.070916   15.205317   24.906311 H          1 MOL1         0.3769
     113    C33     22.335117   15.943814   22.973326 C.3        1 MOL1         0.1053
     114    H54     21.525180   16.625001   22.679036 H          1 MOL1         0.0783
     115    O28     22.955454   16.402218   24.180136 O.3        1 MOL1        -0.5519
     116    H55     23.669545   17.027663   23.909198 H          1 MOL1         0.3769
     117    C34     23.379934   15.920345   21.831295 C.3        1 MOL1         0.1018
     118    H56     24.309122   15.479462   22.217166 H          1 MOL1         0.0783
     119    C35     22.891149   15.130091   20.582792 C.3        1 MOL1         0.1043
     120    H57     22.120264   15.727900   20.079314 H          1 MOL1         0.0783
     121    O29     22.331625   13.853807   20.985996 O.3        1 MOL1        -0.3740
     122    C36     24.005632   14.847760   19.550726 C.3        1 MOL1         0.0138
     123    H58     24.355853   15.800066   19.131121 H          1 MOL1         0.0794
     124    H59     23.579904   14.265412   18.722632 H          1 MOL1         0.0794
     125    O30     25.096032   14.138954   20.146678 O.3        1 MOL1        -0.5486
     126    H60     24.716168   13.312751   20.520273 H          1 MOL1         0.3769
     127    C1      20.480461   19.575026   18.763074 C.2        1 MOL1        -0.2535
     128    H1      21.017604   19.473743   17.822235 H          1 MOL1         0.0845
     129    H2      20.046636   20.545664   18.990803 H          1 MOL1         0.0845
     130    C2      20.360621   18.542588   19.602573 C.2        1 MOL1        -0.1324
     131    H3      20.803189   17.579589   19.352433 H          1 MOL1         0.0833
     132    C3      19.624663   18.596907   20.923659 C.3        1 MOL1        -0.1813
     133    H4      19.545431   17.583401   21.334498 H          1 MOL1         0.0753
     134    H5      18.596271   18.941483   20.755840 H          1 MOL1         0.0753
     135    C4      20.329266   19.517930   21.944892 C.3        1 MOL1        -0.1855
     136    H6      21.350373   19.159005   22.126885 H          1 MOL1         0.0755
     137    H7      20.425136   20.519288   21.508305 H          1 MOL1         0.0755
     138    C5      19.570530   19.635248   23.287880 C.3        1 MOL1        -0.1855
     139    H8      18.526026   19.912176   23.099674 H          1 MOL1         0.0755
     140    H9      20.005896   20.455465   23.873811 H          1 MOL1         0.0755
     141    C6      19.621685   18.343461   24.144158 C.3        1 MOL1        -0.1958
     142    H10     19.180033   17.497544   23.606326 H          1 MOL1         0.0753
     143    H11     20.663043   18.082414   24.363294 H          1 MOL1         0.0753
     144    C7      18.888008   18.486435   25.473292 C.2        1 MOL1         0.6174
     145    O1      17.686107   18.294117   25.481950 O.co2      1 MOL1        -0.6695
     146    O2      19.529663   18.805648   26.454513 O.co2      1 MOL1        -0.6695
@<TRIPOS>BOND
    1     1     2    1
    2     1     3    1
    3     1     4    1
    4     4     5    1
    5     4     6    1
    6     6     7    1
    7     4     8    1
    8     8     9    1
    9     8    10    1
   10    10    11    1
   11     8    12    1
   12    12    13    1
   13    12    14    1
   14    14    15    1
   15     1    16    1
   16    14    16    1
   17    14    17    1
   18    17    18    1
   19    17    19    1
   20    17    20    1
   21    20    21    1
   22    22    23    1
   23    22    24    1
   24    22    25    1
   25    25    26    1
   26    25    27    1
   27    27    28    1
   28    25    29    1
   29    29    30    1
   30    29    31    1
   31    31    32    1
   32     3    33    1
   33    29    33    1
   34    33    34    1
   35    33    35    1
   36    35    36    1
   37    22    37    1
   38    35    37    1
   39    35    38    1
   40    38    39    1
   41    38    40    1
   42    38    41    1
   43    41    42    1
   44    43    44    1
   45    43    45    1
   46    43    46    1
   47    46    47    1
   48    46    48    1
   49    48    49    1
   50    46    50    1
   51    50    51    1
   52    50    52    1
   53    52    53    1
   54    24    54    1
   55    50    54    1
   56    54    55    1
   57    54    56    1
   58    56    57    1
   59    43    58    1
   60    56    58    1
   61    56    59    1
   62    59    60    1
   63    59    61    1
   64    59    62    1
   65    62    63    1
   66    64    65    1
   67    64    66    1
   68    64    67    1
   69    67    68    1
   70    67    69    1
   71    69    70    1
   72    67    71    1
   73    71    72    1
   74    71    73    1
   75    73    74    1
   76    45    75    1
   77    71    75    1
   78    75    76    1
   79    75    77    1
   80    77    78    1
   81    64    79    1
   82    77    79    1
   83    77    80    1
   84    80    81    1
   85    80    82    1
   86    80    83    1
   87    83    84    1
   88    85    86    1
   89    85    87    1
   90    85    88    1
   91    88    89    1
   92    88    90    1
   93    90    91    1
   94    88    92    1
   95    92    93    1
   96    92    94    1
   97    94    95    1
   98    66    96    1
   99    92    96    1
  100    96    97    1
  101    96    98    1
  102    98    99    1
  103    85   100    1
  104    98   100    1
  105    98   101    1
  106   101   102    1
  107   101   103    1
  108   101   104    1
  109   104   105    1
  110   106   107    1
  111    12   108    1
  112   106   108    1
  113   106   109    1
  114   109   110    1
  115   109   111    1
  116   111   112    1
  117   109   113    1
  118   113   114    1
  119   113   115    1
  120   115   116    1
  121    87   117    1
  122   113   117    1
  123   117   118    1
  124   117   119    1
  125   119   120    1
  126   106   121    1
  127   119   121    1
  128   119   122    1
  129   122   123    1
  130   122   124    1
  131   122   125    1
  132   125   126    1
  133   127   128    1
  134   127   129    1
  135   127   130    2
  136   130   131    1
  137   130   132    1
  138   132   133    1
  139   132   134    1
  140   132   135    1
  141   135   136    1
  142   135   137    1
  143   135   138    1
  144   138   139    1
  145   138   140    1
  146   138   141    1
  147   141   142    1
  148   141   143    1
  149   141   144    1
  150   144   145    1
  151   144   146    2
@<TRIPOS>SUBSTRUCTURE
       1 MOL1            1 RESIDUE      1      MOL     
       2 MOL1          146 RESIDUE      1      MOL     
@<SCITEGIC>MOL_PROPERTY
VM2 Rank
SciTegic.value.IntegerValue
1

@<SCITEGIC>MOL_PROPERTY
Conf_Id
SciTegic.value.IntegerValue
23346

@<SCITEGIC>MOL_PROPERTY
Probability
SciTegic.value.DoubleValue
7.55

@<SCITEGIC>MOL_PROPERTY
Sum Probability
SciTegic.value.DoubleValue
7.55

@<SCITEGIC>MOL_PROPERTY
Delta G
SciTegic.value.DoubleValue
0.000

@<SCITEGIC>MOL_PROPERTY
G
SciTegic.value.DoubleValue
492.062

@<SCITEGIC>MOL_PROPERTY
E
SciTegic.value.DoubleValue
304.705

@<SCITEGIC>MOL_PROPERTY
-TS
SciTegic.value.DoubleValue
187.357

@<SCITEGIC>MOL_PROPERTY
U+W
SciTegic.value.DoubleValue
175.935

@<SCITEGIC>MOL_PROPERTY
U
SciTegic.value.DoubleValue
248.383

@<SCITEGIC>MOL_PROPERTY
W
SciTegic.value.DoubleValue
-72.448

@<SCITEGIC>MOL_PROPERTY
W(PB)
SciTegic.value.DoubleValue
-78.576

@<SCITEGIC>MOL_PROPERTY
W(SA)
SciTegic.value.DoubleValue
6.127

@<SCITEGIC>MOL_PROPERTY
Valence
SciTegic.value.DoubleValue
151.972

@<SCITEGIC>MOL_PROPERTY
Coulomb
SciTegic.value.DoubleValue
122.387

@<SCITEGIC>MOL_PROPERTY
VdW
SciTegic.value.DoubleValue
-25.976

@<SCITEGIC>MOL_PROPERTY
VdW6
SciTegic.value.DoubleValue
-181.371

@<SCITEGIC>MOL_PROPERTY
VdW12
SciTegic.value.DoubleValue
155.395

@<SCITEGIC>MOL_PROPERTY
Bond
SciTegic.value.DoubleValue
4.488

@<SCITEGIC>MOL_PROPERTY
Angle
SciTegic.value.DoubleValue
11.575

@<SCITEGIC>MOL_PROPERTY
Pdih
SciTegic.value.DoubleValue
135.907

@<SCITEGIC>MOL_PROPERTY
Idih
SciTegic.value.DoubleValue
0.001

@<SCITEGIC>MOL_PROPERTY
Tether
SciTegic.value.DoubleValue
0.000

