@<TRIPOS>MOLECULE
CD_guest-5_vm2_single.mol2 : vm2 host+ligand conformer 1
         148         154           2
SMALL
USER_CHARGES
 
@<TRIPOS>ATOM
       1    C1      16.219417   15.181780   21.606246 C.3        1 MOL1         0.2972
       2    H1      15.137632   14.996520   21.599307 H          1 MOL1         0.0751
       3    O1      16.522694   16.576648   21.410350 O.3        1 MOL1        -0.3740
       4    C2      16.830719   14.725063   22.955944 C.3        1 MOL1         0.1003
       5    H2      16.644865   13.647450   23.051941 H          1 MOL1         0.0783
       6    O2      16.223990   15.404967   24.065958 O.3        1 MOL1        -0.5519
       7    H3      15.691436   16.152395   23.696817 H          1 MOL1         0.3769
       8    C3      18.359907   14.946750   22.963898 C.3        1 MOL1         0.1053
       9    H4      18.539056   16.026503   22.924742 H          1 MOL1         0.0783
      10    O3      18.913502   14.401702   24.164941 O.3        1 MOL1        -0.5519
      11    H5      18.313400   14.713712   24.878833 H          1 MOL1         0.3769
      12    C4      19.030169   14.297464   21.730149 C.3        1 MOL1         0.1018
      13    H6      19.015681   13.208532   21.869823 H          1 MOL1         0.0783
      14    C5      18.298023   14.661543   20.408434 C.3        1 MOL1         0.1043
      15    H7      18.487302   15.720708   20.187719 H          1 MOL1         0.0783
      16    O4      16.871610   14.435131   20.556101 O.3        1 MOL1        -0.3740
      17    C6      18.774663   13.831137   19.196184 C.3        1 MOL1         0.0138
      18    H8      19.833498   14.047669   19.004707 H          1 MOL1         0.0794
      19    H9      18.211020   14.148191   18.308573 H          1 MOL1         0.0794
      20    O5      18.589998   12.431085   19.426734 O.3        1 MOL1        -0.5486
      21    H10     17.635362   12.311418   19.628670 H          1 MOL1         0.3769
      22    C7      14.732435   20.267861   20.693764 C.3        1 MOL1         0.2972
      23    H11     14.057543   21.074287   20.380752 H          1 MOL1         0.0751
      24    O6      15.984246   20.778996   21.189799 O.3        1 MOL1        -0.3740
      25    C8      14.080492   19.433432   21.824495 C.3        1 MOL1         0.1003
      26    H12     13.139637   19.026263   21.432007 H          1 MOL1         0.0783
      27    O7      13.798108   20.259150   22.966026 O.3        1 MOL1        -0.5519
      28    H13     14.548697   20.898482   23.060354 H          1 MOL1         0.3769
      29    C9      14.982018   18.241685   22.230113 C.3        1 MOL1         0.1053
      30    H14     15.879500   18.646643   22.714296 H          1 MOL1         0.0783
      31    O8      14.272708   17.408170   23.150851 O.3        1 MOL1        -0.5519
      32    H15     13.845654   18.032299   23.780129 H          1 MOL1         0.3769
      33    C10     15.428814   17.417482   20.994641 C.3        1 MOL1         0.1018
      34    H16     14.580743   16.829441   20.619469 H          1 MOL1         0.0783
      35    C11     15.957401   18.321290   19.849244 C.3        1 MOL1         0.1043
      36    H17     16.923135   18.746488   20.152997 H          1 MOL1         0.0783
      37    O9      15.007129   19.384071   19.587566 O.3        1 MOL1        -0.3740
      38    C12     16.172317   17.553363   18.526197 C.3        1 MOL1         0.0138
      39    H18     16.895128   16.744238   18.692884 H          1 MOL1         0.0794
      40    H19     16.609434   18.239079   17.788103 H          1 MOL1         0.0794
      41    O10     14.938997   17.018755   18.036351 O.3        1 MOL1        -0.5486
      42    H20     14.312579   17.775440   17.996803 H          1 MOL1         0.3769
      43    C13     18.394996   24.153276   21.277988 C.3        1 MOL1         0.2972
      44    H21     18.824699   25.160523   21.200389 H          1 MOL1         0.0751
      45    O11     19.401003   23.161684   21.562347 O.3        1 MOL1        -0.3740
      46    C14     17.321991   24.088516   22.394052 C.3        1 MOL1         0.1003
      47    H22     16.526722   24.797525   22.129868 H          1 MOL1         0.0783
      48    O12     17.874100   24.451784   23.669659 O.3        1 MOL1        -0.5519
      49    H23     18.683715   23.898394   23.812686 H          1 MOL1         0.3769
      50    C15     16.702696   22.672073   22.457271 C.3        1 MOL1         0.1053
      51    H24     17.490101   21.985067   22.787860 H          1 MOL1         0.0783
      52    O13     15.619104   22.657656   23.392278 O.3        1 MOL1        -0.5519
      53    H25     15.954623   23.139181   24.180868 H          1 MOL1         0.3769
      54    C16     16.205287   22.197836   21.068376 C.3        1 MOL1         0.1018
      55    H26     15.282798   22.740892   20.823987 H          1 MOL1         0.0783
      56    C17     17.259666   22.430934   19.950620 C.3        1 MOL1         0.1043
      57    H27     18.082764   21.715395   20.081676 H          1 MOL1         0.0783
      58    O14     17.752222   23.791960   20.037799 O.3        1 MOL1        -0.3740
      59    C18     16.680109   22.250143   18.531895 C.3        1 MOL1         0.0138
      60    H28     15.860599   22.965281   18.380316 H          1 MOL1         0.0794
      61    H29     16.267329   21.239527   18.429758 H          1 MOL1         0.0794
      62    O15     17.706533   22.450250   17.558146 O.3        1 MOL1        -0.5486
      63    H30     18.132177   23.306168   17.788492 H          1 MOL1         0.3769
      64    C19     23.448076   22.649044   22.119295 C.3        1 MOL1         0.2972
      65    H31     24.523896   22.747166   22.310955 H          1 MOL1         0.0751
      66    O16     23.117958   21.354681   21.575724 O.3        1 MOL1        -0.3740
      67    C20     22.649819   22.844924   23.431762 C.3        1 MOL1         0.1003
      68    H32     22.867767   23.856726   23.797587 H          1 MOL1         0.0783
      69    O17     23.048313   21.885697   24.425204 O.3        1 MOL1        -0.5519
      70    H33     23.906900   21.501866   24.127380 H          1 MOL1         0.3769
      71    C21     21.128982   22.742679   23.164287 C.3        1 MOL1         0.1053
      72    H34     20.905847   21.705711   22.889968 H          1 MOL1         0.0783
      73    O18     20.411433   23.087962   24.352939 O.3        1 MOL1        -0.5519
      74    H35     20.863533   22.588838   25.069418 H          1 MOL1         0.3769
      75    C22     20.683413   23.654040   21.993104 C.3        1 MOL1         0.1018
      76    H36     20.625570   24.687424   22.360259 H          1 MOL1         0.0783
      77    C23     21.633399   23.573138   20.764318 C.3        1 MOL1         0.1043
      78    H37     21.465043   22.610162   20.265495 H          1 MOL1         0.0783
      79    O19     23.014694   23.662924   21.189392 O.3        1 MOL1        -0.3740
      80    C24     21.390220   24.686446   19.720986 C.3        1 MOL1         0.0138
      81    H38     20.389399   24.560056   19.287841 H          1 MOL1         0.0794
      82    H39     22.115322   24.568744   18.904449 H          1 MOL1         0.0794
      83    O20     21.512241   25.984195   20.310619 O.3        1 MOL1        -0.5486
      84    H40     22.416846   26.028743   20.693087 H          1 MOL1         0.3769
      85    C25     25.002841   17.736421   20.764567 C.3        1 MOL1         0.2972
      86    H41     25.667091   16.940489   20.403973 H          1 MOL1         0.0751
      87    O21     23.812453   17.204412   21.373144 O.3        1 MOL1        -0.3740
      88    C26     25.717256   18.600231   21.834508 C.3        1 MOL1         0.1003
      89    H42     26.620055   19.019912   21.372159 H          1 MOL1         0.0783
      90    O22     26.089094   17.790079   22.962067 O.3        1 MOL1        -0.5519
      91    H43     25.322468   17.193940   23.153942 H          1 MOL1         0.3769
      92    C27     24.821883   19.778107   22.298192 C.3        1 MOL1         0.1053
      93    H44     23.989704   19.355949   22.869393 H          1 MOL1         0.0783
      94    O23     25.581854   20.638837   23.153725 O.3        1 MOL1        -0.5519
      95    H45     26.095605   20.031174   23.732602 H          1 MOL1         0.3769
      96    C28     24.224840   20.565912   21.097000 C.3        1 MOL1         0.1018
      97    H46     24.999812   21.199077   20.645023 H          1 MOL1         0.0783
      98    C29     23.644930   19.623052   20.008540 C.3        1 MOL1         0.1043
      99    H47     22.728468   19.158184   20.397490 H          1 MOL1         0.0783
     100    O24     24.616474   18.602183   19.678674 O.3        1 MOL1        -0.3740
     101    C30     23.281482   20.356811   18.698618 C.3        1 MOL1         0.0138
     102    H48     22.524585   21.121798   18.912468 H          1 MOL1         0.0794
     103    H49     22.830797   19.634415   18.005125 H          1 MOL1         0.0794
     104    O25     24.436850   20.957462   18.106086 O.3        1 MOL1        -0.5486
     105    H50     25.103378   20.239344   18.024776 H          1 MOL1         0.3769
     106    C31     21.418785   13.828840   21.487513 C.3        1 MOL1         0.2972
     107    H51     21.013273   12.809732   21.451394 H          1 MOL1         0.0751
     108    O26     20.376512   14.815564   21.658314 O.3        1 MOL1        -0.3740
     109    C32     22.417257   13.967394   22.663689 C.3        1 MOL1         0.1003
     110    H52     23.228769   13.247805   22.494644 H          1 MOL1         0.0783
     111    O27     21.782526   13.674660   23.919011 O.3        1 MOL1        -0.5519
     112    H53     20.874239   14.069740   23.896581 H          1 MOL1         0.3769
     113    C33     23.035291   15.384393   22.685645 C.3        1 MOL1         0.1053
     114    H54     22.233600   16.091821   22.919601 H          1 MOL1         0.0783
     115    O28     24.053827   15.455369   23.689848 O.3        1 MOL1        -0.5519
     116    H55     23.659976   15.026487   24.481556 H          1 MOL1         0.3769
     117    C34     23.627221   15.778059   21.311414 C.3        1 MOL1         0.1018
     118    H56     24.579642   15.247500   21.182096 H          1 MOL1         0.0783
     119    C35     22.666230   15.454161   20.130013 C.3        1 MOL1         0.1043
     120    H57     21.839761   16.174882   20.141119 H          1 MOL1         0.0783
     121    O29     22.139767   14.112143   20.270458 O.3        1 MOL1        -0.3740
     122    C36     23.339055   15.530704   18.741155 C.3        1 MOL1         0.0138
     123    H58     23.641136   16.565343   18.539614 H          1 MOL1         0.0794
     124    H59     22.599066   15.256641   17.977446 H          1 MOL1         0.0794
     125    O30     24.471960   14.659837   18.666765 O.3        1 MOL1        -0.5486
     126    H60     24.139182   13.759670   18.879613 H          1 MOL1         0.3769
     127    C1      18.374126   18.604123   25.116591 C.3        1 MOL1        -0.1685
     128    H1      17.793480   18.982541   25.968515 H          1 MOL1         0.0832
     129    H2      17.844461   17.707996   24.766473 H          1 MOL1         0.0832
     130    C2      19.775733   18.216202   25.630225 C.3        1 MOL1        -0.1685
     131    H3      20.245503   19.088049   26.105390 H          1 MOL1         0.0832
     132    H4      19.657134   17.465266   26.422842 H          1 MOL1         0.0832
     133    C3      20.721757   17.646204   24.552607 C.3        1 MOL1        -0.1685
     134    H5      20.268078   16.783011   24.057776 H          1 MOL1         0.0832
     135    H6      21.614603   17.263739   25.065524 H          1 MOL1         0.0832
     136    C4      21.181719   18.697487   23.516108 C.3        1 MOL1        -0.1761
     137    H7      21.374091   19.650199   24.024445 H          1 MOL1         0.0832
     138    H8      22.149046   18.378842   23.119521 H          1 MOL1         0.0832
     139    C5      20.248198   18.938084   22.308113 C.3        1 MOL1         0.1218
     140    H9      20.599122   19.854021   21.813754 H          1 MOL1         0.0789
     141    C6      18.745107   19.124184   22.614801 C.3        1 MOL1        -0.1761
     142    H10     18.348064   19.804955   21.853367 H          1 MOL1         0.0832
     143    H11     18.217120   18.178610   22.464690 H          1 MOL1         0.0832
     144    C7      18.374820   19.681773   24.009783 C.3        1 MOL1        -0.1685
     145    H12     19.021765   20.526158   24.281852 H          1 MOL1         0.0832
     146    H13     17.355006   20.083321   23.952196 H          1 MOL1         0.0832
     147    O1      20.390520   17.863147   21.388586 O.3        1 MOL1        -0.5509
     148    H14     20.263891   17.037125   21.896814 H          1 MOL1         0.3779
@<TRIPOS>BOND
    1     1     2    1
    2     1     3    1
    3     1     4    1
    4     4     5    1
    5     4     6    1
    6     6     7    1
    7     4     8    1
    8     8     9    1
    9     8    10    1
   10    10    11    1
   11     8    12    1
   12    12    13    1
   13    12    14    1
   14    14    15    1
   15     1    16    1
   16    14    16    1
   17    14    17    1
   18    17    18    1
   19    17    19    1
   20    17    20    1
   21    20    21    1
   22    22    23    1
   23    22    24    1
   24    22    25    1
   25    25    26    1
   26    25    27    1
   27    27    28    1
   28    25    29    1
   29    29    30    1
   30    29    31    1
   31    31    32    1
   32     3    33    1
   33    29    33    1
   34    33    34    1
   35    33    35    1
   36    35    36    1
   37    22    37    1
   38    35    37    1
   39    35    38    1
   40    38    39    1
   41    38    40    1
   42    38    41    1
   43    41    42    1
   44    43    44    1
   45    43    45    1
   46    43    46    1
   47    46    47    1
   48    46    48    1
   49    48    49    1
   50    46    50    1
   51    50    51    1
   52    50    52    1
   53    52    53    1
   54    24    54    1
   55    50    54    1
   56    54    55    1
   57    54    56    1
   58    56    57    1
   59    43    58    1
   60    56    58    1
   61    56    59    1
   62    59    60    1
   63    59    61    1
   64    59    62    1
   65    62    63    1
   66    64    65    1
   67    64    66    1
   68    64    67    1
   69    67    68    1
   70    67    69    1
   71    69    70    1
   72    67    71    1
   73    71    72    1
   74    71    73    1
   75    73    74    1
   76    45    75    1
   77    71    75    1
   78    75    76    1
   79    75    77    1
   80    77    78    1
   81    64    79    1
   82    77    79    1
   83    77    80    1
   84    80    81    1
   85    80    82    1
   86    80    83    1
   87    83    84    1
   88    85    86    1
   89    85    87    1
   90    85    88    1
   91    88    89    1
   92    88    90    1
   93    90    91    1
   94    88    92    1
   95    92    93    1
   96    92    94    1
   97    94    95    1
   98    66    96    1
   99    92    96    1
  100    96    97    1
  101    96    98    1
  102    98    99    1
  103    85   100    1
  104    98   100    1
  105    98   101    1
  106   101   102    1
  107   101   103    1
  108   101   104    1
  109   104   105    1
  110   106   107    1
  111    12   108    1
  112   106   108    1
  113   106   109    1
  114   109   110    1
  115   109   111    1
  116   111   112    1
  117   109   113    1
  118   113   114    1
  119   113   115    1
  120   115   116    1
  121    87   117    1
  122   113   117    1
  123   117   118    1
  124   117   119    1
  125   119   120    1
  126   106   121    1
  127   119   121    1
  128   119   122    1
  129   122   123    1
  130   122   124    1
  131   122   125    1
  132   125   126    1
  133   127   128    1
  134   127   129    1
  135   127   130    1
  136   130   131    1
  137   130   132    1
  138   130   133    1
  139   133   134    1
  140   133   135    1
  141   133   136    1
  142   136   137    1
  143   136   138    1
  144   136   139    1
  145   139   140    1
  146   139   141    1
  147   141   142    1
  148   141   143    1
  149   127   144    1
  150   141   144    1
  151   144   145    1
  152   144   146    1
  153   139   147    1
  154   147   148    1
@<TRIPOS>SUBSTRUCTURE
       1 MOL1            1 RESIDUE      1      MOL     
       2 MOL1          148 RESIDUE      1      MOL     
@<SCITEGIC>MOL_PROPERTY
VM2 Rank
SciTegic.value.IntegerValue
1

@<SCITEGIC>MOL_PROPERTY
Conf_Id
SciTegic.value.IntegerValue
7969

@<SCITEGIC>MOL_PROPERTY
Probability
SciTegic.value.DoubleValue
1.52

@<SCITEGIC>MOL_PROPERTY
Sum Probability
SciTegic.value.DoubleValue
1.52

@<SCITEGIC>MOL_PROPERTY
Delta G
SciTegic.value.DoubleValue
0.000

@<SCITEGIC>MOL_PROPERTY
G
SciTegic.value.DoubleValue
566.048

@<SCITEGIC>MOL_PROPERTY
E
SciTegic.value.DoubleValue
371.171

@<SCITEGIC>MOL_PROPERTY
-TS
SciTegic.value.DoubleValue
194.878

@<SCITEGIC>MOL_PROPERTY
U+W
SciTegic.value.DoubleValue
240.611

@<SCITEGIC>MOL_PROPERTY
U
SciTegic.value.DoubleValue
272.154

@<SCITEGIC>MOL_PROPERTY
W
SciTegic.value.DoubleValue
-31.543

@<SCITEGIC>MOL_PROPERTY
W(PB)
SciTegic.value.DoubleValue
-37.712

@<SCITEGIC>MOL_PROPERTY
W(SA)
SciTegic.value.DoubleValue
6.169

@<SCITEGIC>MOL_PROPERTY
Valence
SciTegic.value.DoubleValue
158.489

@<SCITEGIC>MOL_PROPERTY
Coulomb
SciTegic.value.DoubleValue
140.472

@<SCITEGIC>MOL_PROPERTY
VdW
SciTegic.value.DoubleValue
-26.806

@<SCITEGIC>MOL_PROPERTY
VdW6
SciTegic.value.DoubleValue
-179.154

@<SCITEGIC>MOL_PROPERTY
VdW12
SciTegic.value.DoubleValue
152.347

@<SCITEGIC>MOL_PROPERTY
Bond
SciTegic.value.DoubleValue
4.325

@<SCITEGIC>MOL_PROPERTY
Angle
SciTegic.value.DoubleValue
12.019

@<SCITEGIC>MOL_PROPERTY
Pdih
SciTegic.value.DoubleValue
142.144

@<SCITEGIC>MOL_PROPERTY
Idih
SciTegic.value.DoubleValue
0.000

@<SCITEGIC>MOL_PROPERTY
Tether
SciTegic.value.DoubleValue
0.000

