@<TRIPOS>MOLECULE
CD_guest-4_vm2_single.mol2 : vm2 host+ligand conformer 1
         142         148           2
SMALL
USER_CHARGES
 
@<TRIPOS>ATOM
       1    C1      16.280413   15.119146   21.216533 C.3        1 MOL1         0.2972
       2    H1      15.194997   14.957844   21.185828 H          1 MOL1         0.0751
       3    O1      16.607752   16.508177   21.424006 O.3        1 MOL1        -0.3740
       4    C2      16.931791   14.286295   22.350706 C.3        1 MOL1         0.1003
       5    H2      16.728741   13.229161   22.135621 H          1 MOL1         0.0783
       6    O2      16.371676   14.616747   23.631220 O.3        1 MOL1        -0.5519
       7    H3      16.395613   15.603159   23.722666 H          1 MOL1         0.3769
       8    C3      18.467983   14.480529   22.360814 C.3        1 MOL1         0.1053
       9    H4      18.681451   15.516357   22.650041 H          1 MOL1         0.0783
      10    O3      19.054169   13.581394   23.308084 O.3        1 MOL1        -0.5519
      11    H5      18.514848   13.682374   24.123381 H          1 MOL1         0.3769
      12    C4      19.078338   14.235803   20.958668 C.3        1 MOL1         0.1018
      13    H6      19.095793   13.153339   20.775131 H          1 MOL1         0.0783
      14    C5      18.291388   14.953943   19.827081 C.3        1 MOL1         0.1043
      15    H7      18.480781   16.033099   19.902760 H          1 MOL1         0.0783
      16    O4      16.873404   14.696961   19.970551 O.3        1 MOL1        -0.3740
      17    C6      18.706833   14.502234   18.409058 C.3        1 MOL1         0.0138
      18    H8      19.753515   14.783336   18.234940 H          1 MOL1         0.0794
      19    H9      18.097516   15.044083   17.673433 H          1 MOL1         0.0794
      20    O5      18.541547   13.090316   18.246995 O.3        1 MOL1        -0.5486
      21    H10     17.597212   12.900291   18.443432 H          1 MOL1         0.3769
      22    C7      14.892568   20.247605   21.901154 C.3        1 MOL1         0.2972
      23    H11     14.232315   21.107250   22.074148 H          1 MOL1         0.0751
      24    O6      16.172840   20.655241   21.376432 O.3        1 MOL1        -0.3740
      25    C8      15.108521   19.460108   23.218818 C.3        1 MOL1         0.1003
      26    H12     14.127540   19.079052   23.531361 H          1 MOL1         0.0783
      27    O7      15.635102   20.293866   24.262610 O.3        1 MOL1        -0.5519
      28    H13     15.663313   21.217601   23.912929 H          1 MOL1         0.3769
      29    C9      16.036064   18.247535   22.977813 C.3        1 MOL1         0.1053
      30    H14     17.028669   18.626128   22.705392 H          1 MOL1         0.0783
      31    O8      16.120834   17.478733   24.180905 O.3        1 MOL1        -0.5519
      32    H15     16.234190   18.150100   24.891089 H          1 MOL1         0.3769
      33    C10     15.518165   17.367236   21.814470 C.3        1 MOL1         0.1018
      34    H16     14.653418   16.794621   22.175457 H          1 MOL1         0.0783
      35    C11     15.118039   18.204062   20.564882 C.3        1 MOL1         0.1043
      36    H17     16.037626   18.565813   20.085819 H          1 MOL1         0.0783
      37    O9      14.296214   19.335461   20.953953 O.3        1 MOL1        -0.3740
      38    C12     14.330228   17.392007   19.512694 C.3        1 MOL1         0.0138
      39    H18     14.973713   16.593750   19.119714 H          1 MOL1         0.0794
      40    H19     14.079654   18.052396   18.671759 H          1 MOL1         0.0794
      41    O10     13.140180   16.833215   20.077004 O.3        1 MOL1        -0.5486
      42    H20     12.621630   17.590066   20.430367 H          1 MOL1         0.3769
      43    C13     18.417997   24.068491   20.692575 C.3        1 MOL1         0.2972
      44    H21     18.801780   25.052971   20.396279 H          1 MOL1         0.0751
      45    O11     19.468599   23.192061   21.149688 O.3        1 MOL1        -0.3740
      46    C14     17.392284   24.210424   21.842797 C.3        1 MOL1         0.1003
      47    H22     16.562524   24.824797   21.469750 H          1 MOL1         0.0783
      48    O12     17.982269   24.857235   22.981733 O.3        1 MOL1        -0.5519
      49    H23     18.907595   24.514130   23.070447 H          1 MOL1         0.3769
      50    C15     16.821060   22.827707   22.241153 C.3        1 MOL1         0.1053
      51    H24     17.633235   22.248309   22.698512 H          1 MOL1         0.0783
      52    O13     15.767421   23.019130   23.190536 O.3        1 MOL1        -0.5519
      53    H25     16.100622   23.718931   23.797553 H          1 MOL1         0.3769
      54    C16     16.304736   22.041372   21.004286 C.3        1 MOL1         0.1018
      55    H26     15.345232   22.461493   20.674175 H          1 MOL1         0.0783
      56    C17     17.297128   22.081145   19.810642 C.3        1 MOL1         0.1043
      57    H27     18.157442   21.438098   20.033275 H          1 MOL1         0.0783
      58    O14     17.736181   23.442367   19.586279 O.3        1 MOL1        -0.3740
      59    C18     16.645076   21.580015   18.505416 C.3        1 MOL1         0.0138
      60    H28     15.808122   22.240128   18.240984 H          1 MOL1         0.0794
      61    H29     16.237598   20.573445   18.668316 H          1 MOL1         0.0794
      62    O15     17.612401   21.551313   17.454036 O.3        1 MOL1        -0.5486
      63    H30     17.992142   22.456726   17.410804 H          1 MOL1         0.3769
      64    C19     23.591067   22.743679   21.268490 C.3        1 MOL1         0.2972
      65    H31     24.680498   22.858841   21.198078 H          1 MOL1         0.0751
      66    O16     23.218361   21.375275   21.529057 O.3        1 MOL1        -0.3740
      67    C20     22.999932   23.655264   22.376719 C.3        1 MOL1         0.1003
      68    H32     23.209515   24.693514   22.088238 H          1 MOL1         0.0783
      69    O17     23.600215   23.401285   23.655440 O.3        1 MOL1        -0.5519
      70    H33     23.435786   22.448813   23.873241 H          1 MOL1         0.3769
      71    C21     21.463470   23.483291   22.449068 C.3        1 MOL1         0.1053
      72    H34     21.251189   22.456728   22.773483 H          1 MOL1         0.0783
      73    O18     20.918942   24.412840   23.391379 O.3        1 MOL1        -0.5519
      74    H35     21.516171   24.366845   24.171031 H          1 MOL1         0.3769
      75    C22     20.813062   23.701178   21.060097 C.3        1 MOL1         0.1018
      76    H36     20.832491   24.775835   20.836310 H          1 MOL1         0.0783
      77    C23     21.542005   22.919262   19.931311 C.3        1 MOL1         0.1043
      78    H37     21.319541   21.850187   20.048506 H          1 MOL1         0.0783
      79    O19     22.973449   23.134870   20.023648 O.3        1 MOL1        -0.3740
      80    C24     21.099327   23.338946   18.512106 C.3        1 MOL1         0.0138
      81    H38     20.036127   23.101342   18.383168 H          1 MOL1         0.0794
      82    H39     21.657501   22.742930   17.777792 H          1 MOL1         0.0794
      83    O20     21.323970   24.734785   18.292193 O.3        1 MOL1        -0.5486
      84    H40     22.281080   24.887414   18.456487 H          1 MOL1         0.3769
      85    C25     24.656019   17.644534   22.550920 C.3        1 MOL1         0.2972
      86    H41     25.227648   16.774772   22.898185 H          1 MOL1         0.0751
      87    O21     23.463489   17.245819   21.844890 O.3        1 MOL1        -0.3740
      88    C26     24.259206   18.531475   23.757797 C.3        1 MOL1         0.1003
      89    H42     25.191110   18.877653   24.223227 H          1 MOL1         0.0783
      90    O22     23.502988   17.793168   24.728586 O.3        1 MOL1        -0.5519
      91    H43     22.691938   17.450401   24.275345 H          1 MOL1         0.3769
      92    C27     23.468720   19.776032   23.297110 C.3        1 MOL1         0.1053
      93    H44     22.502972   19.434012   22.907069 H          1 MOL1         0.0783
      94    O23     23.263311   20.638714   24.419833 O.3        1 MOL1        -0.5519
      95    H45     22.981339   20.041991   25.148002 H          1 MOL1         0.3769
      96    C28     24.204674   20.541272   22.169306 C.3        1 MOL1         0.1018
      97    H46     25.017433   21.130647   22.614504 H          1 MOL1         0.0783
      98    C29     24.767678   19.595856   21.071492 C.3        1 MOL1         0.1043
      99    H47     23.916774   19.243598   20.476841 H          1 MOL1         0.0783
     100    O24     25.451609   18.460477   21.663382 O.3        1 MOL1        -0.3740
     101    C30     25.754138   20.292402   20.108127 C.3        1 MOL1         0.0138
     102    H48     25.221293   21.077604   19.555474 H          1 MOL1         0.0794
     103    H49     26.107485   19.558022   19.371955 H          1 MOL1         0.0794
     104    O25     26.860551   20.854291   20.819598 O.3        1 MOL1        -0.5486
     105    H50     27.278404   20.111960   21.310542 H          1 MOL1         0.3769
     106    C31     21.452072   13.989622   20.416704 C.3        1 MOL1         0.2972
     107    H51     21.060386   13.085522   19.932921 H          1 MOL1         0.0751
     108    O26     20.401827   14.799869   20.979691 O.3        1 MOL1        -0.3740
     109    C32     22.441381   13.626725   21.547266 C.3        1 MOL1         0.1003
     110    H52     23.278677   13.085008   21.088520 H          1 MOL1         0.0783
     111    O27     21.813543   12.784029   22.526925 O.3        1 MOL1        -0.5519
     112    H53     20.954413   13.212142   22.774715 H          1 MOL1         0.3769
     113    C33     23.006505   14.904536   22.214549 C.3        1 MOL1         0.1053
     114    H54     22.192577   15.359848   22.791613 H          1 MOL1         0.0783
     115    O28     24.070805   14.527715   23.093825 O.3        1 MOL1        -0.5519
     116    H55     23.699269   13.812445   23.655274 H          1 MOL1         0.3769
     117    C34     23.507122   15.961349   21.185911 C.3        1 MOL1         0.1018
     118    H56     24.527152   15.708624   20.866780 H          1 MOL1         0.0783
     119    C35     22.606860   16.088424   19.922755 C.3        1 MOL1         0.1043
     120    H57     21.731766   16.704464   20.168709 H          1 MOL1         0.0783
     121    O29     22.184148   14.782228   19.464852 O.3        1 MOL1        -0.3740
     122    C36     23.353748   16.744594   18.742789 C.3        1 MOL1         0.0138
     123    H58     24.171670   16.085304   18.422378 H          1 MOL1         0.0794
     124    H59     23.801167   17.689185   19.069055 H          1 MOL1         0.0794
     125    O30     22.450604   16.982325   17.661595 O.3        1 MOL1        -0.5486
     126    H60     22.014872   16.120621   17.478225 H          1 MOL1         0.3769
     127    C1      19.684944   19.774891   22.311189 C.3        1 MOL1        -0.1689
     128    H1      18.877118   20.039003   21.619247 H          1 MOL1         0.0830
     129    H2      20.597743   20.274314   21.962819 H          1 MOL1         0.0830
     130    C2      19.347870   20.216869   23.746760 C.3        1 MOL1        -0.1689
     131    H3      19.781038   21.193373   23.998506 H          1 MOL1         0.0830
     132    H4      18.260466   20.294061   23.861437 H          1 MOL1         0.0830
     133    C3      19.873311   19.099049   24.659345 C.3        1 MOL1        -0.1765
     134    H5      19.299404   19.032740   25.592201 H          1 MOL1         0.0830
     135    H6      20.921089   19.293216   24.915449 H          1 MOL1         0.0830
     136    C4      19.762703   17.813044   23.830892 C.3        1 MOL1         0.1214
     137    H7      18.766749   17.374865   23.980221 H          1 MOL1         0.0787
     138    C5      19.902555   18.246702   22.360125 C.3        1 MOL1        -0.1765
     139    H8      20.895889   17.993164   21.972460 H          1 MOL1         0.0830
     140    H9      19.164221   17.725514   21.738734 H          1 MOL1         0.0830
     141    O1      20.785978   16.898249   24.196021 O.3        1 MOL1        -0.5512
     142    H10     20.561544   16.574115   25.091471 H          1 MOL1         0.3776
@<TRIPOS>BOND
    1     1     2    1
    2     1     3    1
    3     1     4    1
    4     4     5    1
    5     4     6    1
    6     6     7    1
    7     4     8    1
    8     8     9    1
    9     8    10    1
   10    10    11    1
   11     8    12    1
   12    12    13    1
   13    12    14    1
   14    14    15    1
   15     1    16    1
   16    14    16    1
   17    14    17    1
   18    17    18    1
   19    17    19    1
   20    17    20    1
   21    20    21    1
   22    22    23    1
   23    22    24    1
   24    22    25    1
   25    25    26    1
   26    25    27    1
   27    27    28    1
   28    25    29    1
   29    29    30    1
   30    29    31    1
   31    31    32    1
   32     3    33    1
   33    29    33    1
   34    33    34    1
   35    33    35    1
   36    35    36    1
   37    22    37    1
   38    35    37    1
   39    35    38    1
   40    38    39    1
   41    38    40    1
   42    38    41    1
   43    41    42    1
   44    43    44    1
   45    43    45    1
   46    43    46    1
   47    46    47    1
   48    46    48    1
   49    48    49    1
   50    46    50    1
   51    50    51    1
   52    50    52    1
   53    52    53    1
   54    24    54    1
   55    50    54    1
   56    54    55    1
   57    54    56    1
   58    56    57    1
   59    43    58    1
   60    56    58    1
   61    56    59    1
   62    59    60    1
   63    59    61    1
   64    59    62    1
   65    62    63    1
   66    64    65    1
   67    64    66    1
   68    64    67    1
   69    67    68    1
   70    67    69    1
   71    69    70    1
   72    67    71    1
   73    71    72    1
   74    71    73    1
   75    73    74    1
   76    45    75    1
   77    71    75    1
   78    75    76    1
   79    75    77    1
   80    77    78    1
   81    64    79    1
   82    77    79    1
   83    77    80    1
   84    80    81    1
   85    80    82    1
   86    80    83    1
   87    83    84    1
   88    85    86    1
   89    85    87    1
   90    85    88    1
   91    88    89    1
   92    88    90    1
   93    90    91    1
   94    88    92    1
   95    92    93    1
   96    92    94    1
   97    94    95    1
   98    66    96    1
   99    92    96    1
  100    96    97    1
  101    96    98    1
  102    98    99    1
  103    85   100    1
  104    98   100    1
  105    98   101    1
  106   101   102    1
  107   101   103    1
  108   101   104    1
  109   104   105    1
  110   106   107    1
  111    12   108    1
  112   106   108    1
  113   106   109    1
  114   109   110    1
  115   109   111    1
  116   111   112    1
  117   109   113    1
  118   113   114    1
  119   113   115    1
  120   115   116    1
  121    87   117    1
  122   113   117    1
  123   117   118    1
  124   117   119    1
  125   119   120    1
  126   106   121    1
  127   119   121    1
  128   119   122    1
  129   122   123    1
  130   122   124    1
  131   122   125    1
  132   125   126    1
  133   127   128    1
  134   127   129    1
  135   127   130    1
  136   130   131    1
  137   130   132    1
  138   130   133    1
  139   133   134    1
  140   133   135    1
  141   133   136    1
  142   136   137    1
  143   127   138    1
  144   136   138    1
  145   138   139    1
  146   138   140    1
  147   136   141    1
  148   141   142    1
@<TRIPOS>SUBSTRUCTURE
       1 MOL1            1 RESIDUE      1      MOL     
       2 MOL1          142 RESIDUE      1      MOL     
@<SCITEGIC>MOL_PROPERTY
VM2 Rank
SciTegic.value.IntegerValue
1

@<SCITEGIC>MOL_PROPERTY
Conf_Id
SciTegic.value.IntegerValue
17649

@<SCITEGIC>MOL_PROPERTY
Probability
SciTegic.value.DoubleValue
1.21

@<SCITEGIC>MOL_PROPERTY
Sum Probability
SciTegic.value.DoubleValue
1.21

@<SCITEGIC>MOL_PROPERTY
Delta G
SciTegic.value.DoubleValue
0.000

@<SCITEGIC>MOL_PROPERTY
G
SciTegic.value.DoubleValue
549.356

@<SCITEGIC>MOL_PROPERTY
E
SciTegic.value.DoubleValue
365.034

@<SCITEGIC>MOL_PROPERTY
-TS
SciTegic.value.DoubleValue
184.323

@<SCITEGIC>MOL_PROPERTY
U+W
SciTegic.value.DoubleValue
239.840

@<SCITEGIC>MOL_PROPERTY
U
SciTegic.value.DoubleValue
272.925

@<SCITEGIC>MOL_PROPERTY
W
SciTegic.value.DoubleValue
-33.085

@<SCITEGIC>MOL_PROPERTY
W(PB)
SciTegic.value.DoubleValue
-39.209

@<SCITEGIC>MOL_PROPERTY
W(SA)
SciTegic.value.DoubleValue
6.125

@<SCITEGIC>MOL_PROPERTY
Valence
SciTegic.value.DoubleValue
158.221

@<SCITEGIC>MOL_PROPERTY
Coulomb
SciTegic.value.DoubleValue
139.349

@<SCITEGIC>MOL_PROPERTY
VdW
SciTegic.value.DoubleValue
-24.645

@<SCITEGIC>MOL_PROPERTY
VdW6
SciTegic.value.DoubleValue
-169.639

@<SCITEGIC>MOL_PROPERTY
VdW12
SciTegic.value.DoubleValue
144.993

@<SCITEGIC>MOL_PROPERTY
Bond
SciTegic.value.DoubleValue
4.314

@<SCITEGIC>MOL_PROPERTY
Angle
SciTegic.value.DoubleValue
12.259

@<SCITEGIC>MOL_PROPERTY
Pdih
SciTegic.value.DoubleValue
141.648

@<SCITEGIC>MOL_PROPERTY
Idih
SciTegic.value.DoubleValue
0.000

@<SCITEGIC>MOL_PROPERTY
Tether
SciTegic.value.DoubleValue
0.000

@<TRIPOS>MOLECULE
CD_guest-4_vm2_single.mol2 : vm2 host+ligand conformer 2
         142         148           2
SMALL
USER_CHARGES
 
@<TRIPOS>ATOM
       1    C1      16.210120   15.093379   21.039984 C.3        1 MOL1         0.2972
       2    H1      15.126450   14.944798   20.946361 H          1 MOL1         0.0751
       3    O1      16.540721   16.480124   21.258989 O.3        1 MOL1        -0.3740
       4    C2      16.793122   14.247695   22.202139 C.3        1 MOL1         0.1003
       5    H2      16.617297   13.192406   21.956045 H          1 MOL1         0.0783
       6    O2      16.150486   14.545168   23.450875 O.3        1 MOL1        -0.5519
       7    H3      16.237698   15.519950   23.605125 H          1 MOL1         0.3769
       8    C3      18.322377   14.461901   22.307980 C.3        1 MOL1         0.1053
       9    H4      18.503178   15.503110   22.600176 H          1 MOL1         0.0783
      10    O3      18.863695   13.578089   23.295418 O.3        1 MOL1        -0.5519
      11    H5      18.256103   13.649949   24.064786 H          1 MOL1         0.3769
      12    C4      19.019005   14.217113   20.947285 C.3        1 MOL1         0.1018
      13    H6      19.056306   13.133648   20.772865 H          1 MOL1         0.0783
      14    C5      18.295700   14.920347   19.763666 C.3        1 MOL1         0.1043
      15    H7      18.481852   16.000412   19.835599 H          1 MOL1         0.0783
      16    O4      16.870292   14.666104   19.829944 O.3        1 MOL1        -0.3740
      17    C6      18.787532   14.450311   18.376393 C.3        1 MOL1         0.0138
      18    H8      19.841248   14.731270   18.254341 H          1 MOL1         0.0794
      19    H9      18.217864   14.980894   17.601793 H          1 MOL1         0.0794
      20    O5      18.633092   13.036008   18.224731 O.3        1 MOL1        -0.5486
      21    H10     17.679038   12.846977   18.367883 H          1 MOL1         0.3769
      22    C7      14.917340   20.214483   21.937356 C.3        1 MOL1         0.2972
      23    H11     14.288363   21.084195   22.166441 H          1 MOL1         0.0751
      24    O6      16.169165   20.604251   21.336389 O.3        1 MOL1        -0.3740
      25    C8      15.206391   19.400848   23.224680 C.3        1 MOL1         0.1003
      26    H12     14.239859   19.046473   23.606005 H          1 MOL1         0.0783
      27    O7      15.840938   20.202475   24.233246 O.3        1 MOL1        -0.5519
      28    H13     15.774864   21.143522   23.941290 H          1 MOL1         0.3769
      29    C9      16.078457   18.165804   22.904295 C.3        1 MOL1         0.1053
      30    H14     17.066861   18.523070   22.591579 H          1 MOL1         0.0783
      31    O8      16.202752   17.369038   24.085384 O.3        1 MOL1        -0.5519
      32    H15     16.358526   18.022973   24.803385 H          1 MOL1         0.3769
      33    C10     15.480657   17.324416   21.749132 C.3        1 MOL1         0.1018
      34    H16     14.639096   16.739827   22.144298 H          1 MOL1         0.0783
      35    C11     15.008265   18.196685   20.550396 C.3        1 MOL1         0.1043
      36    H17     15.898330   18.554643   20.016126 H          1 MOL1         0.0783
      37    O9      14.237075   19.331891   21.019647 O.3        1 MOL1        -0.3740
      38    C12     14.137334   17.421469   19.536657 C.3        1 MOL1         0.0138
      39    H18     14.741009   16.625447   19.080746 H          1 MOL1         0.0794
      40    H19     13.838442   18.105865   18.731439 H          1 MOL1         0.0794
      41    O10     12.981591   16.863122   20.168459 O.3        1 MOL1        -0.5486
      42    H20     12.498708   17.616928   20.574997 H          1 MOL1         0.3769
      43    C13     18.424261   24.044712   20.728066 C.3        1 MOL1         0.2972
      44    H21     18.789343   25.039114   20.441491 H          1 MOL1         0.0751
      45    O11     19.489970   23.189644   21.188122 O.3        1 MOL1        -0.3740
      46    C14     17.388020   24.159357   21.872148 C.3        1 MOL1         0.1003
      47    H22     16.556518   24.772360   21.500716 H          1 MOL1         0.0783
      48    O12     17.963079   24.795998   23.024518 O.3        1 MOL1        -0.5519
      49    H23     18.898927   24.479768   23.100744 H          1 MOL1         0.3769
      50    C15     16.821914   22.767951   22.248814 C.3        1 MOL1         0.1053
      51    H24     17.631873   22.184704   22.704921 H          1 MOL1         0.0783
      52    O13     15.762207   22.947791   23.194166 O.3        1 MOL1        -0.5519
      53    H25     16.087813   23.648217   23.804805 H          1 MOL1         0.3769
      54    C16     16.320961   21.996485   20.995212 C.3        1 MOL1         0.1018
      55    H26     15.371929   22.427473   20.649383 H          1 MOL1         0.0783
      56    C17     17.342916   22.043400   19.827818 C.3        1 MOL1         0.1043
      57    H27     18.204437   21.410114   20.077964 H          1 MOL1         0.0783
      58    O14     17.767653   23.410508   19.611399 O.3        1 MOL1        -0.3740
      59    C18     16.731477   21.532573   18.506528 C.3        1 MOL1         0.0138
      60    H28     15.887430   22.176183   18.224557 H          1 MOL1         0.0794
      61    H29     16.341216   20.517443   18.657146 H          1 MOL1         0.0794
      62    O15     17.722753   21.526854   17.477278 O.3        1 MOL1        -0.5486
      63    H30     18.082685   22.440652   17.443760 H          1 MOL1         0.3769
      64    C19     23.614545   22.796155   21.303929 C.3        1 MOL1         0.2972
      65    H31     24.702785   22.921703   21.232533 H          1 MOL1         0.0751
      66    O16     23.253735   21.428806   21.584583 O.3        1 MOL1        -0.3740
      67    C20     23.015597   23.709662   22.405236 C.3        1 MOL1         0.1003
      68    H32     23.218042   24.748084   22.112360 H          1 MOL1         0.0783
      69    O17     23.617338   23.463158   23.685064 O.3        1 MOL1        -0.5519
      70    H33     23.509738   22.498126   23.882757 H          1 MOL1         0.3769
      71    C21     21.480250   23.527039   22.478015 C.3        1 MOL1         0.1053
      72    H34     21.274973   22.503631   22.814501 H          1 MOL1         0.0783
      73    O18     20.927521   24.462846   23.409210 O.3        1 MOL1        -0.5519
      74    H35     21.522280   24.427282   24.191273 H          1 MOL1         0.3769
      75    C22     20.825697   23.720276   21.087595 C.3        1 MOL1         0.1018
      76    H36     20.827011   24.792860   20.853349 H          1 MOL1         0.0783
      77    C23     21.564675   22.939465   19.964087 C.3        1 MOL1         0.1043
      78    H37     21.354554   21.868869   20.086234 H          1 MOL1         0.0783
      79    O19     22.993370   23.169849   20.055751 O.3        1 MOL1        -0.3740
      80    C24     21.119826   23.346011   18.541850 C.3        1 MOL1         0.0138
      81    H38     20.059269   23.097608   18.413188 H          1 MOL1         0.0794
      82    H39     21.684470   22.750662   17.811956 H          1 MOL1         0.0794
      83    O20     21.331641   24.742424   18.313281 O.3        1 MOL1        -0.5486
      84    H40     22.286762   24.905303   18.479300 H          1 MOL1         0.3769
      85    C25     24.750374   17.686926   22.466423 C.3        1 MOL1         0.2972
      86    H41     25.340916   16.810479   22.762263 H          1 MOL1         0.0751
      87    O21     23.504388   17.301199   21.850897 O.3        1 MOL1        -0.3740
      88    C26     24.459091   18.569238   23.705739 C.3        1 MOL1         0.1003
      89    H42     25.427743   18.912111   24.091774 H          1 MOL1         0.0783
      90    O22     23.787088   17.829462   24.734476 O.3        1 MOL1        -0.5519
      91    H43     22.914495   17.543727   24.363971 H          1 MOL1         0.3769
      92    C27     23.635068   19.815684   23.315794 C.3        1 MOL1         0.1053
      93    H44     22.640904   19.477703   22.997276 H          1 MOL1         0.0783
      94    O23     23.520489   20.670783   24.457360 O.3        1 MOL1        -0.5519
      95    H45     23.262781   20.072889   25.194241 H          1 MOL1         0.3769
      96    C28     24.283719   20.587012   22.140124 C.3        1 MOL1         0.1018
      97    H46     25.129739   21.170619   22.527130 H          1 MOL1         0.0783
      98    C29     24.758335   19.648466   20.995253 C.3        1 MOL1         0.1043
      99    H47     23.863791   19.305139   20.462109 H          1 MOL1         0.0783
     100    O24     25.479260   18.504481   21.524531 O.3        1 MOL1        -0.3740
     101    C30     25.674014   20.349978   19.967751 C.3        1 MOL1         0.0138
     102    H48     25.106843   21.145385   19.466185 H          1 MOL1         0.0794
     103    H49     25.965060   19.622130   19.198572 H          1 MOL1         0.0794
     104    O25     26.835323   20.895811   20.599919 O.3        1 MOL1        -0.5486
     105    H50     27.282596   20.144896   21.050203 H          1 MOL1         0.3769
     106    C31     21.418713   13.991312   20.544534 C.3        1 MOL1         0.2972
     107    H51     21.061812   13.059027   20.088157 H          1 MOL1         0.0751
     108    O26     20.334498   14.791452   21.053792 O.3        1 MOL1        -0.3740
     109    C32     22.382713   13.692326   21.716072 C.3        1 MOL1         0.1003
     110    H52     23.230482   13.128425   21.305864 H          1 MOL1         0.0783
     111    O27     21.731730   12.899674   22.722574 O.3        1 MOL1        -0.5519
     112    H53     20.844860   13.308425   22.891075 H          1 MOL1         0.3769
     113    C33     22.934944   15.002624   22.330412 C.3        1 MOL1         0.1053
     114    H54     22.110435   15.498459   22.859828 H          1 MOL1         0.0783
     115    O28     23.976373   14.667815   23.252798 O.3        1 MOL1        -0.5519
     116    H55     23.585456   13.992305   23.848890 H          1 MOL1         0.3769
     117    C34     23.471207   15.988038   21.252674 C.3        1 MOL1         0.1018
     118    H56     24.470735   15.669096   20.927989 H          1 MOL1         0.0783
     119    C35     22.553457   16.090047   20.002565 C.3        1 MOL1         0.1043
     120    H57     21.673605   16.698202   20.251481 H          1 MOL1         0.0783
     121    O29     22.148842   14.767574   19.576704 O.3        1 MOL1        -0.3740
     122    C36     23.277243   16.735268   18.802369 C.3        1 MOL1         0.0138
     123    H58     24.108232   16.087971   18.491334 H          1 MOL1         0.0794
     124    H59     23.704274   17.697374   19.104120 H          1 MOL1         0.0794
     125    O30     22.361619   16.927145   17.722526 O.3        1 MOL1        -0.5486
     126    H60     21.951044   16.049892   17.556784 H          1 MOL1         0.3769
     127    C1      19.716401   19.849819   22.375851 C.3        1 MOL1        -0.1689
     128    H1      18.700114   20.045117   22.014680 H          1 MOL1         0.0830
     129    H2      20.417534   20.369026   21.710091 H          1 MOL1         0.0830
     130    C2      19.842927   20.327201   23.830437 C.3        1 MOL1        -0.1689
     131    H3      20.887715   20.567660   24.054350 H          1 MOL1         0.0830
     132    H4      19.240433   21.221586   24.034366 H          1 MOL1         0.0830
     133    C3      19.407305   19.125756   24.681911 C.3        1 MOL1        -0.1765
     134    H5      18.321834   19.161875   24.830320 H          1 MOL1         0.0830
     135    H6      19.879429   19.138174   25.672691 H          1 MOL1         0.0830
     136    C4      19.766719   17.867827   23.870670 C.3        1 MOL1         0.1214
     137    H7      18.942869   17.144716   23.932573 H          1 MOL1         0.0787
     138    C5      19.969926   18.328727   22.412102 C.3        1 MOL1        -0.1765
     139    H8      20.991858   18.110022   22.082325 H          1 MOL1         0.0830
     140    H9      19.287564   17.800188   21.734544 H          1 MOL1         0.0830
     141    O1      20.966858   17.294771   24.375381 O.3        1 MOL1        -0.5512
     142    H10     20.765823   16.998206   25.285629 H          1 MOL1         0.3776
@<TRIPOS>BOND
    1     1     2    1
    2     1     3    1
    3     1     4    1
    4     4     5    1
    5     4     6    1
    6     6     7    1
    7     4     8    1
    8     8     9    1
    9     8    10    1
   10    10    11    1
   11     8    12    1
   12    12    13    1
   13    12    14    1
   14    14    15    1
   15     1    16    1
   16    14    16    1
   17    14    17    1
   18    17    18    1
   19    17    19    1
   20    17    20    1
   21    20    21    1
   22    22    23    1
   23    22    24    1
   24    22    25    1
   25    25    26    1
   26    25    27    1
   27    27    28    1
   28    25    29    1
   29    29    30    1
   30    29    31    1
   31    31    32    1
   32     3    33    1
   33    29    33    1
   34    33    34    1
   35    33    35    1
   36    35    36    1
   37    22    37    1
   38    35    37    1
   39    35    38    1
   40    38    39    1
   41    38    40    1
   42    38    41    1
   43    41    42    1
   44    43    44    1
   45    43    45    1
   46    43    46    1
   47    46    47    1
   48    46    48    1
   49    48    49    1
   50    46    50    1
   51    50    51    1
   52    50    52    1
   53    52    53    1
   54    24    54    1
   55    50    54    1
   56    54    55    1
   57    54    56    1
   58    56    57    1
   59    43    58    1
   60    56    58    1
   61    56    59    1
   62    59    60    1
   63    59    61    1
   64    59    62    1
   65    62    63    1
   66    64    65    1
   67    64    66    1
   68    64    67    1
   69    67    68    1
   70    67    69    1
   71    69    70    1
   72    67    71    1
   73    71    72    1
   74    71    73    1
   75    73    74    1
   76    45    75    1
   77    71    75    1
   78    75    76    1
   79    75    77    1
   80    77    78    1
   81    64    79    1
   82    77    79    1
   83    77    80    1
   84    80    81    1
   85    80    82    1
   86    80    83    1
   87    83    84    1
   88    85    86    1
   89    85    87    1
   90    85    88    1
   91    88    89    1
   92    88    90    1
   93    90    91    1
   94    88    92    1
   95    92    93    1
   96    92    94    1
   97    94    95    1
   98    66    96    1
   99    92    96    1
  100    96    97    1
  101    96    98    1
  102    98    99    1
  103    85   100    1
  104    98   100    1
  105    98   101    1
  106   101   102    1
  107   101   103    1
  108   101   104    1
  109   104   105    1
  110   106   107    1
  111    12   108    1
  112   106   108    1
  113   106   109    1
  114   109   110    1
  115   109   111    1
  116   111   112    1
  117   109   113    1
  118   113   114    1
  119   113   115    1
  120   115   116    1
  121    87   117    1
  122   113   117    1
  123   117   118    1
  124   117   119    1
  125   119   120    1
  126   106   121    1
  127   119   121    1
  128   119   122    1
  129   122   123    1
  130   122   124    1
  131   122   125    1
  132   125   126    1
  133   127   128    1
  134   127   129    1
  135   127   130    1
  136   130   131    1
  137   130   132    1
  138   130   133    1
  139   133   134    1
  140   133   135    1
  141   133   136    1
  142   136   137    1
  143   127   138    1
  144   136   138    1
  145   138   139    1
  146   138   140    1
  147   136   141    1
  148   141   142    1
@<TRIPOS>SUBSTRUCTURE
       1 MOL1            1 RESIDUE      1      MOL     
       2 MOL1          142 RESIDUE      1      MOL     
@<SCITEGIC>MOL_PROPERTY
VM2 Rank
SciTegic.value.IntegerValue
2

@<SCITEGIC>MOL_PROPERTY
Conf_Id
SciTegic.value.IntegerValue
10509

@<SCITEGIC>MOL_PROPERTY
Probability
SciTegic.value.DoubleValue
1.09

@<SCITEGIC>MOL_PROPERTY
Sum Probability
SciTegic.value.DoubleValue
2.30

@<SCITEGIC>MOL_PROPERTY
Delta G
SciTegic.value.DoubleValue
0.064

@<SCITEGIC>MOL_PROPERTY
G
SciTegic.value.DoubleValue
549.420

@<SCITEGIC>MOL_PROPERTY
E
SciTegic.value.DoubleValue
365.201

@<SCITEGIC>MOL_PROPERTY
-TS
SciTegic.value.DoubleValue
184.219

@<SCITEGIC>MOL_PROPERTY
U+W
SciTegic.value.DoubleValue
240.007

@<SCITEGIC>MOL_PROPERTY
U
SciTegic.value.DoubleValue
273.185

@<SCITEGIC>MOL_PROPERTY
W
SciTegic.value.DoubleValue
-33.178

@<SCITEGIC>MOL_PROPERTY
W(PB)
SciTegic.value.DoubleValue
-39.307

@<SCITEGIC>MOL_PROPERTY
W(SA)
SciTegic.value.DoubleValue
6.130

@<SCITEGIC>MOL_PROPERTY
Valence
SciTegic.value.DoubleValue
157.439

@<SCITEGIC>MOL_PROPERTY
Coulomb
SciTegic.value.DoubleValue
139.643

@<SCITEGIC>MOL_PROPERTY
VdW
SciTegic.value.DoubleValue
-23.896

@<SCITEGIC>MOL_PROPERTY
VdW6
SciTegic.value.DoubleValue
-168.444

@<SCITEGIC>MOL_PROPERTY
VdW12
SciTegic.value.DoubleValue
144.547

@<SCITEGIC>MOL_PROPERTY
Bond
SciTegic.value.DoubleValue
4.254

@<SCITEGIC>MOL_PROPERTY
Angle
SciTegic.value.DoubleValue
12.302

@<SCITEGIC>MOL_PROPERTY
Pdih
SciTegic.value.DoubleValue
140.883

@<SCITEGIC>MOL_PROPERTY
Idih
SciTegic.value.DoubleValue
0.000

@<SCITEGIC>MOL_PROPERTY
Tether
SciTegic.value.DoubleValue
0.000

@<TRIPOS>MOLECULE
CD_guest-4_vm2_single.mol2 : vm2 host+ligand conformer 3
         142         148           2
SMALL
USER_CHARGES
 
@<TRIPOS>ATOM
       1    C1      16.305177   14.980788   21.675651 C.3        1 MOL1         0.2972
       2    H1      15.230534   14.811403   21.816563 H          1 MOL1         0.0751
       3    O1      16.638513   16.385010   21.715281 O.3        1 MOL1        -0.3740
       4    C2      17.107611   14.247160   22.778003 C.3        1 MOL1         0.1003
       5    H2      16.880285   13.176687   22.690953 H          1 MOL1         0.0783
       6    O2      16.738546   14.703664   24.085981 O.3        1 MOL1        -0.5519
       7    H3      17.399297   14.289681   24.685949 H          1 MOL1         0.3769
       8    C3      18.628470   14.427669   22.575349 C.3        1 MOL1         0.1053
       9    H4      18.873337   15.476070   22.774123 H          1 MOL1         0.0783
      10    O3      19.328163   13.581077   23.494798 O.3        1 MOL1        -0.5519
      11    H5      20.277893   13.589624   23.223557 H          1 MOL1         0.3769
      12    C4      19.069642   14.110424   21.125308 C.3        1 MOL1         0.1018
      13    H6      19.137489   13.020666   21.009137 H          1 MOL1         0.0783
      14    C5      18.115144   14.707474   20.052233 C.3        1 MOL1         0.1043
      15    H7      18.283313   15.791908   20.005462 H          1 MOL1         0.0783
      16    O4      16.734217   14.446866   20.405603 O.3        1 MOL1        -0.3740
      17    C6      18.356177   14.138597   18.636376 C.3        1 MOL1         0.0138
      18    H8      19.362976   14.423003   18.302993 H          1 MOL1         0.0794
      19    H9      17.640188   14.600688   17.943481 H          1 MOL1         0.0794
      20    O5      18.215419   12.714983   18.620503 O.3        1 MOL1        -0.5486
      21    H10     17.310648   12.524540   18.954772 H          1 MOL1         0.3769
      22    C7      14.927980   20.188404   21.730883 C.3        1 MOL1         0.2972
      23    H11     14.219783   21.026089   21.763292 H          1 MOL1         0.0751
      24    O6      16.266013   20.636603   21.439191 O.3        1 MOL1        -0.3740
      25    C8      14.923344   19.443449   23.089658 C.3        1 MOL1         0.1003
      26    H12     13.898708   19.088421   23.260434 H          1 MOL1         0.0783
      27    O7      15.300350   20.312097   24.166709 O.3        1 MOL1        -0.5519
      28    H13     15.440602   19.709105   24.930950 H          1 MOL1         0.3769
      29    C9      15.849069   18.205690   23.053811 C.3        1 MOL1         0.1053
      30    H14     16.886263   18.553271   22.966887 H          1 MOL1         0.0783
      31    O8      15.679181   17.454614   24.261812 O.3        1 MOL1        -0.5519
      32    H15     16.149059   16.593087   24.136628 H          1 MOL1         0.3769
      33    C10     15.539061   17.309667   21.829739 C.3        1 MOL1         0.1018
      34    H16     14.581892   16.798372   21.997702 H          1 MOL1         0.0783
      35    C11     15.459470   18.130518   20.514505 C.3        1 MOL1         0.1043
      36    H17     16.465356   18.491631   20.261426 H          1 MOL1         0.0783
      37    O9      14.549371   19.243427   20.707591 O.3        1 MOL1        -0.3740
      38    C12     14.925407   17.305438   19.325614 C.3        1 MOL1         0.0138
      39    H18     13.902244   16.972191   19.544882 H          1 MOL1         0.0794
      40    H19     15.548000   16.412066   19.191342 H          1 MOL1         0.0794
      41    O10     14.952609   18.095739   18.135156 O.3        1 MOL1        -0.5486
      42    H20     14.506149   18.943764   18.358599 H          1 MOL1         0.3769
      43    C13     18.469978   24.028215   20.593967 C.3        1 MOL1         0.2972
      44    H21     18.854010   24.998157   20.252979 H          1 MOL1         0.0751
      45    O11     19.520421   23.182183   21.106750 O.3        1 MOL1        -0.3740
      46    C14     17.429892   24.220991   21.725988 C.3        1 MOL1         0.1003
      47    H22     16.595453   24.804248   21.316236 H          1 MOL1         0.0783
      48    O12     18.023056   24.948425   22.814701 O.3        1 MOL1        -0.5519
      49    H23     18.897920   24.529168   23.009774 H          1 MOL1         0.3769
      50    C15     16.870321   22.847912   22.188530 C.3        1 MOL1         0.1053
      51    H24     17.684146   22.304261   22.685343 H          1 MOL1         0.0783
      52    O13     15.781689   23.025810   23.103247 O.3        1 MOL1        -0.5519
      53    H25     15.621245   22.142797   23.518699 H          1 MOL1         0.3769
      54    C16     16.384582   21.998088   20.982406 C.3        1 MOL1         0.1018
      55    H26     15.422867   22.392736   20.628552 H          1 MOL1         0.0783
      56    C17     17.381269   21.993147   19.791381 C.3        1 MOL1         0.1043
      57    H27     18.248699   21.376948   20.054291 H          1 MOL1         0.0783
      58    O14     17.817228   23.342747   19.505679 O.3        1 MOL1        -0.3740
      59    C18     16.770459   21.409592   18.497706 C.3        1 MOL1         0.0138
      60    H28     16.471059   20.369760   18.681497 H          1 MOL1         0.0794
      61    H29     17.542964   21.395593   17.717428 H          1 MOL1         0.0794
      62    O15     15.643508   22.177555   18.065115 O.3        1 MOL1        -0.5486
      63    H30     15.959380   23.105253   17.988391 H          1 MOL1         0.3769
      64    C19     23.624227   22.783559   21.374307 C.3        1 MOL1         0.2972
      65    H31     24.716161   22.895395   21.357376 H          1 MOL1         0.0751
      66    O16     23.232554   21.406290   21.551465 O.3        1 MOL1        -0.3740
      67    C20     22.987169   23.644154   22.496426 C.3        1 MOL1         0.1003
      68    H32     23.195396   24.695094   22.256955 H          1 MOL1         0.0783
      69    O17     23.546132   23.346140   23.783961 O.3        1 MOL1        -0.5519
      70    H33     23.390819   22.382963   23.956056 H          1 MOL1         0.3769
      71    C21     21.451283   23.454281   22.503813 C.3        1 MOL1         0.1053
      72    H34     21.236460   22.411961   22.772476 H          1 MOL1         0.0783
      73    O18     20.864817   24.332856   23.469075 O.3        1 MOL1        -0.5519
      74    H35     21.435629   24.255429   24.265833 H          1 MOL1         0.3769
      75    C22     20.850428   23.733485   21.102509 C.3        1 MOL1         0.1018
      76    H36     20.844482   24.819760   20.942755 H          1 MOL1         0.0783
      77    C23     21.638422   23.035627   19.956985 C.3        1 MOL1         0.1043
      78    H37     21.417458   21.960217   19.989744 H          1 MOL1         0.0783
      79    O19     23.063569   23.244098   20.126685 O.3        1 MOL1        -0.3740
      80    C24     21.257907   23.552230   18.551375 C.3        1 MOL1         0.0138
      81    H38     20.202663   23.322079   18.355906 H          1 MOL1         0.0794
      82    H39     21.853132   23.011103   17.803781 H          1 MOL1         0.0794
      83    O20     21.484775   24.960631   18.440795 O.3        1 MOL1        -0.5486
      84    H40     22.432949   25.103340   18.657852 H          1 MOL1         0.3769
      85    C25     24.608467   17.618641   22.460050 C.3        1 MOL1         0.2972
      86    H41     25.173867   16.735674   22.781674 H          1 MOL1         0.0751
      87    O21     23.407821   17.251836   21.748211 O.3        1 MOL1        -0.3740
      88    C26     24.225745   18.475613   23.692464 C.3        1 MOL1         0.1003
      89    H42     25.163602   18.803745   24.159064 H          1 MOL1         0.0783
      90    O22     23.473677   17.718988   24.652465 O.3        1 MOL1        -0.5519
      91    H43     22.647286   17.404189   24.206851 H          1 MOL1         0.3769
      92    C27     23.442855   19.736971   23.266966 C.3        1 MOL1         0.1053
      93    H44     22.477653   19.413888   22.859370 H          1 MOL1         0.0783
      94    O23     23.235578   20.561791   24.416845 O.3        1 MOL1        -0.5519
      95    H45     22.955540   19.940276   25.124947 H          1 MOL1         0.3769
      96    C28     24.195994   20.530151   22.169566 C.3        1 MOL1         0.1018
      97    H46     25.018362   21.086851   22.638561 H          1 MOL1         0.0783
      98    C29     24.745973   19.613458   21.041026 C.3        1 MOL1         0.1043
      99    H47     23.891713   19.292420   20.433932 H          1 MOL1         0.0783
     100    O24     25.412782   18.449428   21.594416 O.3        1 MOL1        -0.3740
     101    C30     25.743824   20.329159   20.103755 C.3        1 MOL1         0.0138
     102    H48     25.224485   21.144696   19.582980 H          1 MOL1         0.0794
     103    H49     26.083715   19.617705   19.339294 H          1 MOL1         0.0794
     104    O25     26.860375   20.843552   20.835173 O.3        1 MOL1        -0.5486
     105    H50     27.264343   20.075603   21.297513 H          1 MOL1         0.3769
     106    C31     21.386965   13.985660   20.322936 C.3        1 MOL1         0.2972
     107    H51     20.990324   13.090881   19.826134 H          1 MOL1         0.0751
     108    O26     20.344531   14.755336   20.952139 O.3        1 MOL1        -0.3740
     109    C32     22.449633   13.615115   21.386843 C.3        1 MOL1         0.1003
     110    H52     23.282501   13.129031   20.861706 H          1 MOL1         0.0783
     111    O27     21.920802   12.714416   22.374963 O.3        1 MOL1        -0.5519
     112    H53     21.782984   11.845978   21.940787 H          1 MOL1         0.3769
     113    C33     23.000762   14.889148   22.072342 C.3        1 MOL1         0.1053
     114    H54     22.197681   15.306334   22.694305 H          1 MOL1         0.0783
     115    O28     24.105953   14.510635   22.898599 O.3        1 MOL1        -0.5519
     116    H55     23.764672   13.777586   23.456645 H          1 MOL1         0.3769
     117    C34     23.433680   15.985146   21.053755 C.3        1 MOL1         0.1018
     118    H56     24.439088   15.758122   20.674670 H          1 MOL1         0.0783
     119    C35     22.464571   16.129998   19.844081 C.3        1 MOL1         0.1043
     120    H57     21.588661   16.712993   20.157984 H          1 MOL1         0.0783
     121    O29     22.050441   14.827803   19.362685 O.3        1 MOL1        -0.3740
     122    C36     23.128205   16.849987   18.651831 C.3        1 MOL1         0.0138
     123    H58     23.949338   16.230182   18.267298 H          1 MOL1         0.0794
     124    H59     23.559827   17.798231   18.989142 H          1 MOL1         0.0794
     125    O30     22.162749   17.093790   17.627268 O.3        1 MOL1        -0.5486
     126    H60     21.732154   16.228127   17.449300 H          1 MOL1         0.3769
     127    C1      19.615312   19.757471   22.365891 C.3        1 MOL1        -0.1689
     128    H1      20.531008   20.257164   22.025039 H          1 MOL1         0.0830
     129    H2      18.811731   20.028909   21.674862 H          1 MOL1         0.0830
     130    C2      19.274734   20.186191   23.804274 C.3        1 MOL1        -0.1689
     131    H3      19.699667   21.165762   24.059866 H          1 MOL1         0.0830
     132    H4      18.184934   20.251771   23.921751 H          1 MOL1         0.0830
     133    C3      19.820617   19.065938   24.703017 C.3        1 MOL1        -0.1765
     134    H5      19.261647   18.990204   25.644201 H          1 MOL1         0.0830
     135    H6      20.871571   19.264180   24.943246 H          1 MOL1         0.0830
     136    C4      19.704820   17.784651   23.867306 C.3        1 MOL1         0.1214
     137    H7      18.710489   17.343507   24.026897 H          1 MOL1         0.0787
     138    C5      19.825020   18.228882   22.398409 C.3        1 MOL1        -0.1765
     139    H8      20.810993   17.973413   21.992968 H          1 MOL1         0.0830
     140    H9      19.073606   17.717329   21.784593 H          1 MOL1         0.0830
     141    O1      20.738143   16.868434   24.204221 O.3        1 MOL1        -0.5512
     142    H10     20.524723   16.523239   25.094635 H          1 MOL1         0.3776
@<TRIPOS>BOND
    1     1     2    1
    2     1     3    1
    3     1     4    1
    4     4     5    1
    5     4     6    1
    6     6     7    1
    7     4     8    1
    8     8     9    1
    9     8    10    1
   10    10    11    1
   11     8    12    1
   12    12    13    1
   13    12    14    1
   14    14    15    1
   15     1    16    1
   16    14    16    1
   17    14    17    1
   18    17    18    1
   19    17    19    1
   20    17    20    1
   21    20    21    1
   22    22    23    1
   23    22    24    1
   24    22    25    1
   25    25    26    1
   26    25    27    1
   27    27    28    1
   28    25    29    1
   29    29    30    1
   30    29    31    1
   31    31    32    1
   32     3    33    1
   33    29    33    1
   34    33    34    1
   35    33    35    1
   36    35    36    1
   37    22    37    1
   38    35    37    1
   39    35    38    1
   40    38    39    1
   41    38    40    1
   42    38    41    1
   43    41    42    1
   44    43    44    1
   45    43    45    1
   46    43    46    1
   47    46    47    1
   48    46    48    1
   49    48    49    1
   50    46    50    1
   51    50    51    1
   52    50    52    1
   53    52    53    1
   54    24    54    1
   55    50    54    1
   56    54    55    1
   57    54    56    1
   58    56    57    1
   59    43    58    1
   60    56    58    1
   61    56    59    1
   62    59    60    1
   63    59    61    1
   64    59    62    1
   65    62    63    1
   66    64    65    1
   67    64    66    1
   68    64    67    1
   69    67    68    1
   70    67    69    1
   71    69    70    1
   72    67    71    1
   73    71    72    1
   74    71    73    1
   75    73    74    1
   76    45    75    1
   77    71    75    1
   78    75    76    1
   79    75    77    1
   80    77    78    1
   81    64    79    1
   82    77    79    1
   83    77    80    1
   84    80    81    1
   85    80    82    1
   86    80    83    1
   87    83    84    1
   88    85    86    1
   89    85    87    1
   90    85    88    1
   91    88    89    1
   92    88    90    1
   93    90    91    1
   94    88    92    1
   95    92    93    1
   96    92    94    1
   97    94    95    1
   98    66    96    1
   99    92    96    1
  100    96    97    1
  101    96    98    1
  102    98    99    1
  103    85   100    1
  104    98   100    1
  105    98   101    1
  106   101   102    1
  107   101   103    1
  108   101   104    1
  109   104   105    1
  110   106   107    1
  111    12   108    1
  112   106   108    1
  113   106   109    1
  114   109   110    1
  115   109   111    1
  116   111   112    1
  117   109   113    1
  118   113   114    1
  119   113   115    1
  120   115   116    1
  121    87   117    1
  122   113   117    1
  123   117   118    1
  124   117   119    1
  125   119   120    1
  126   106   121    1
  127   119   121    1
  128   119   122    1
  129   122   123    1
  130   122   124    1
  131   122   125    1
  132   125   126    1
  133   127   128    1
  134   127   129    1
  135   127   130    1
  136   130   131    1
  137   130   132    1
  138   130   133    1
  139   133   134    1
  140   133   135    1
  141   133   136    1
  142   136   137    1
  143   127   138    1
  144   136   138    1
  145   138   139    1
  146   138   140    1
  147   136   141    1
  148   141   142    1
@<TRIPOS>SUBSTRUCTURE
       1 MOL1            1 RESIDUE      1      MOL     
       2 MOL1          142 RESIDUE      1      MOL     
@<SCITEGIC>MOL_PROPERTY
VM2 Rank
SciTegic.value.IntegerValue
3

@<SCITEGIC>MOL_PROPERTY
Conf_Id
SciTegic.value.IntegerValue
23731

@<SCITEGIC>MOL_PROPERTY
Probability
SciTegic.value.DoubleValue
1.05

@<SCITEGIC>MOL_PROPERTY
Sum Probability
SciTegic.value.DoubleValue
3.35

@<SCITEGIC>MOL_PROPERTY
Delta G
SciTegic.value.DoubleValue
0.087

@<SCITEGIC>MOL_PROPERTY
G
SciTegic.value.DoubleValue
549.443

@<SCITEGIC>MOL_PROPERTY
E
SciTegic.value.DoubleValue
365.814

@<SCITEGIC>MOL_PROPERTY
-TS
SciTegic.value.DoubleValue
183.629

@<SCITEGIC>MOL_PROPERTY
U+W
SciTegic.value.DoubleValue
240.620

@<SCITEGIC>MOL_PROPERTY
U
SciTegic.value.DoubleValue
279.515

@<SCITEGIC>MOL_PROPERTY
W
SciTegic.value.DoubleValue
-38.894

@<SCITEGIC>MOL_PROPERTY
W(PB)
SciTegic.value.DoubleValue
-44.994

@<SCITEGIC>MOL_PROPERTY
W(SA)
SciTegic.value.DoubleValue
6.100

@<SCITEGIC>MOL_PROPERTY
Valence
SciTegic.value.DoubleValue
157.119

@<SCITEGIC>MOL_PROPERTY
Coulomb
SciTegic.value.DoubleValue
147.142

@<SCITEGIC>MOL_PROPERTY
VdW
SciTegic.value.DoubleValue
-24.746

@<SCITEGIC>MOL_PROPERTY
VdW6
SciTegic.value.DoubleValue
-168.250

@<SCITEGIC>MOL_PROPERTY
VdW12
SciTegic.value.DoubleValue
143.505

@<SCITEGIC>MOL_PROPERTY
Bond
SciTegic.value.DoubleValue
4.255

@<SCITEGIC>MOL_PROPERTY
Angle
SciTegic.value.DoubleValue
12.522

@<SCITEGIC>MOL_PROPERTY
Pdih
SciTegic.value.DoubleValue
140.342

@<SCITEGIC>MOL_PROPERTY
Idih
SciTegic.value.DoubleValue
0.000

@<SCITEGIC>MOL_PROPERTY
Tether
SciTegic.value.DoubleValue
0.000

@<TRIPOS>MOLECULE
CD_guest-4_vm2_single.mol2 : vm2 host+ligand conformer 4
         142         148           2
SMALL
USER_CHARGES
 
@<TRIPOS>ATOM
       1    C1      16.313365   14.990188   21.574475 C.3        1 MOL1         0.2972
       2    H1      15.234338   14.818150   21.671939 H          1 MOL1         0.0751
       3    O1      16.643605   16.393458   21.656567 O.3        1 MOL1        -0.3740
       4    C2      17.076208   14.230153   22.687917 C.3        1 MOL1         0.1003
       5    H2      16.850781   13.162406   22.568429 H          1 MOL1         0.0783
       6    O2      16.663113   14.655924   23.992736 O.3        1 MOL1        -0.5519
       7    H3      17.302048   14.225908   24.605051 H          1 MOL1         0.3769
       8    C3      18.603391   14.411600   22.541935 C.3        1 MOL1         0.1053
       9    H4      18.843642   15.456802   22.764126 H          1 MOL1         0.0783
      10    O3      19.271409   13.549220   23.470367 O.3        1 MOL1        -0.5519
      11    H5      20.230918   13.568839   23.236446 H          1 MOL1         0.3769
      12    C4      19.089149   14.112193   21.103135 C.3        1 MOL1         0.1018
      13    H6      19.139613   13.023509   20.969379 H          1 MOL1         0.0783
      14    C5      18.180900   14.745828   20.011562 C.3        1 MOL1         0.1043
      15    H7      18.358591   15.829654   19.999829 H          1 MOL1         0.0783
      16    O4      16.786355   14.486189   20.307656 O.3        1 MOL1        -0.3740
      17    C6      18.469404   14.210714   18.591396 C.3        1 MOL1         0.0138
      18    H8      19.490422   14.493321   18.302879 H          1 MOL1         0.0794
      19    H9      17.783913   14.697320   17.884606 H          1 MOL1         0.0794
      20    O5      18.316412   12.789395   18.533824 O.3        1 MOL1        -0.5486
      21    H10     17.398253   12.599759   18.829799 H          1 MOL1         0.3769
      22    C7      14.906902   20.188560   21.737265 C.3        1 MOL1         0.2972
      23    H11     14.191036   21.018978   21.783798 H          1 MOL1         0.0751
      24    O6      16.240483   20.653191   21.450744 O.3        1 MOL1        -0.3740
      25    C8      14.908648   19.418289   23.082392 C.3        1 MOL1         0.1003
      26    H12     13.886974   19.051148   23.245236 H          1 MOL1         0.0783
      27    O7      15.277128   20.266409   24.178114 O.3        1 MOL1        -0.5519
      28    H13     15.421381   19.647427   24.928916 H          1 MOL1         0.3769
      29    C9      15.844404   18.189321   23.025322 C.3        1 MOL1         0.1053
      30    H14     16.878940   18.546210   22.944251 H          1 MOL1         0.0783
      31    O8      15.678988   17.418515   24.221327 O.3        1 MOL1        -0.5519
      32    H15     16.134662   16.552803   24.074826 H          1 MOL1         0.3769
      33    C10     15.540174   17.311885   21.786672 C.3        1 MOL1         0.1018
      34    H16     14.585455   16.793436   21.946549 H          1 MOL1         0.0783
      35    C11     15.455845   18.155606   20.486032 C.3        1 MOL1         0.1043
      36    H17     16.458948   18.529685   20.240639 H          1 MOL1         0.0783
      37    O9      14.536287   19.257621   20.698037 O.3        1 MOL1        -0.3740
      38    C12     14.930612   17.347746   19.281529 C.3        1 MOL1         0.0138
      39    H18     13.912341   16.996529   19.495450 H          1 MOL1         0.0794
      40    H19     15.565063   16.465699   19.128249 H          1 MOL1         0.0794
      41    O10     14.945122   18.162856   18.107681 O.3        1 MOL1        -0.5486
      42    H20     14.484085   18.997982   18.349049 H          1 MOL1         0.3769
      43    C13     18.446762   24.079094   20.724891 C.3        1 MOL1         0.2972
      44    H21     18.815295   25.069246   20.428764 H          1 MOL1         0.0751
      45    O11     19.514675   23.216880   21.169685 O.3        1 MOL1        -0.3740
      46    C14     17.421463   24.210001   21.878749 C.3        1 MOL1         0.1003
      47    H22     16.582668   24.814333   21.509539 H          1 MOL1         0.0783
      48    O12     18.004096   24.852923   23.021135 O.3        1 MOL1        -0.5519
      49    H23     17.333209   24.748319   23.732909 H          1 MOL1         0.3769
      50    C15     16.871707   22.822676   22.283707 C.3        1 MOL1         0.1053
      51    H24     17.697160   22.254216   22.730144 H          1 MOL1         0.0783
      52    O13     15.822170   22.986250   23.244778 O.3        1 MOL1        -0.5519
      53    H25     15.629050   22.083599   23.602067 H          1 MOL1         0.3769
      54    C16     16.354290   22.033520   21.052609 C.3        1 MOL1         0.1018
      55    H26     15.388752   22.448340   20.734158 H          1 MOL1         0.0783
      56    C17     17.336800   22.080859   19.850012 C.3        1 MOL1         0.1043
      57    H27     18.205407   21.451393   20.076507 H          1 MOL1         0.0783
      58    O14     17.774738   23.441905   19.617573 O.3        1 MOL1        -0.3740
      59    C18     16.708127   21.555135   18.540385 C.3        1 MOL1         0.0138
      60    H28     16.404038   20.510093   18.684216 H          1 MOL1         0.0794
      61    H29     17.471527   21.569624   17.751207 H          1 MOL1         0.0794
      62    O15     15.581341   22.347589   18.154203 O.3        1 MOL1        -0.5486
      63    H30     15.902343   23.275898   18.114166 H          1 MOL1         0.3769
      64    C19     23.609107   22.735406   21.244967 C.3        1 MOL1         0.2972
      65    H31     24.700795   22.819333   21.166263 H          1 MOL1         0.0751
      66    O16     23.201173   21.378312   21.513373 O.3        1 MOL1        -0.3740
      67    C20     23.057443   23.665489   22.357717 C.3        1 MOL1         0.1003
      68    H32     23.302014   24.696039   22.070320 H          1 MOL1         0.0783
      69    O17     23.682592   23.377247   23.618087 O.3        1 MOL1        -0.5519
      70    H33     23.409427   22.461521   23.875316 H          1 MOL1         0.3769
      71    C21     21.511211   23.552053   22.441535 C.3        1 MOL1         0.1053
      72    H34     21.261947   22.548489   22.811492 H          1 MOL1         0.0783
      73    O18     20.977883   24.545114   23.326707 O.3        1 MOL1        -0.5519
      74    H35     19.993475   24.501234   23.246279 H          1 MOL1         0.3769
      75    C22     20.852606   23.735834   21.049686 C.3        1 MOL1         0.1018
      76    H36     20.859413   24.806307   20.805423 H          1 MOL1         0.0783
      77    C23     21.563454   22.943492   19.917949 C.3        1 MOL1         0.1043
      78    H37     21.324568   21.877897   20.034636 H          1 MOL1         0.0783
      79    O19     22.996528   23.138175   20.003146 O.3        1 MOL1        -0.3740
      80    C24     21.121853   23.373694   18.501134 C.3        1 MOL1         0.0138
      81    H38     20.050651   23.169243   18.378866 H          1 MOL1         0.0794
      82    H39     21.656935   22.760106   17.764131 H          1 MOL1         0.0794
      83    O20     21.388592   24.761504   18.277034 O.3        1 MOL1        -0.5486
      84    H40     22.349090   24.885809   18.446090 H          1 MOL1         0.3769
      85    C25     24.596665   17.625461   22.522315 C.3        1 MOL1         0.2972
      86    H41     25.164133   16.754039   22.871088 H          1 MOL1         0.0751
      87    O21     23.406031   17.231838   21.808465 O.3        1 MOL1        -0.3740
      88    C26     24.197651   18.510481   23.730146 C.3        1 MOL1         0.1003
      89    H42     25.129009   18.850587   24.201122 H          1 MOL1         0.0783
      90    O22     23.433971   17.773065   24.695849 O.3        1 MOL1        -0.5519
      91    H43     22.620588   17.437805   24.241109 H          1 MOL1         0.3769
      92    C27     23.417156   19.760785   23.268588 C.3        1 MOL1         0.1053
      93    H44     22.453858   19.425793   22.866543 H          1 MOL1         0.0783
      94    O23     23.204635   20.620240   24.392762 O.3        1 MOL1        -0.5519
      95    H45     22.910597   20.022916   25.115387 H          1 MOL1         0.3769
      96    C28     24.171081   20.525288   22.152516 C.3        1 MOL1         0.1018
      97    H46     24.988314   21.099694   22.608991 H          1 MOL1         0.0783
      98    C29     24.729719   19.580966   21.051625 C.3        1 MOL1         0.1043
      99    H47     23.877688   19.238172   20.453670 H          1 MOL1         0.0783
     100    O24     25.402128   18.438307   21.641241 O.3        1 MOL1        -0.3740
     101    C30     25.725589   20.271447   20.093441 C.3        1 MOL1         0.0138
     102    H48     25.200719   21.059559   19.537407 H          1 MOL1         0.0794
     103    H49     26.078308   19.534719   19.359317 H          1 MOL1         0.0794
     104    O25     26.831790   20.826618   20.810447 O.3        1 MOL1        -0.5486
     105    H50     27.243369   20.081711   21.302739 H          1 MOL1         0.3769
     106    C31     21.428900   13.952307   20.380658 C.3        1 MOL1         0.2972
     107    H51     21.036428   13.052426   19.889840 H          1 MOL1         0.0751
     108    O26     20.381368   14.733754   20.986428 O.3        1 MOL1        -0.3740
     109    C32     22.474189   13.591162   21.464371 C.3        1 MOL1         0.1003
     110    H52     23.313781   13.096795   20.958032 H          1 MOL1         0.0783
     111    O27     21.926214   12.703973   22.454483 O.3        1 MOL1        -0.5519
     112    H53     21.789609   11.831724   22.027646 H          1 MOL1         0.3769
     113    C33     23.017042   14.871743   22.143785 C.3        1 MOL1         0.1053
     114    H54     22.205897   15.292453   22.752305 H          1 MOL1         0.0783
     115    O28     24.112817   14.503988   22.987374 O.3        1 MOL1        -0.5519
     116    H55     23.765442   13.777559   23.550257 H          1 MOL1         0.3769
     117    C34     23.460589   15.961135   21.122842 C.3        1 MOL1         0.1018
     118    H56     24.476726   15.740852   20.769173 H          1 MOL1         0.0783
     119    C35     22.519015   16.087164   19.888993 C.3        1 MOL1         0.1043
     120    H57     21.638696   16.679084   20.172741 H          1 MOL1         0.0783
     121    O29     22.110126   14.778995   19.420241 O.3        1 MOL1        -0.3740
     122    C36     23.212161   16.780501   18.697603 C.3        1 MOL1         0.0138
     123    H58     24.033460   16.145625   18.338834 H          1 MOL1         0.0794
     124    H59     23.648484   17.729342   19.025936 H          1 MOL1         0.0794
     125    O30     22.268649   17.016773   17.651083 O.3        1 MOL1        -0.5486
     126    H60     21.837124   16.151275   17.474908 H          1 MOL1         0.3769
     127    C1      19.607360   19.763982   22.351834 C.3        1 MOL1        -0.1689
     128    H1      20.521423   20.269256   22.014147 H          1 MOL1         0.0830
     129    H2      18.802871   20.036894   21.661543 H          1 MOL1         0.0830
     130    C2      19.267229   20.185797   23.792439 C.3        1 MOL1        -0.1689
     131    H3      19.694497   21.163765   24.051414 H          1 MOL1         0.0830
     132    H4      18.177528   20.250957   23.911035 H          1 MOL1         0.0830
     133    C3      19.810868   19.061303   24.686847 C.3        1 MOL1        -0.1765
     134    H5      19.250732   18.982038   25.627053 H          1 MOL1         0.0830
     135    H6      20.861740   19.257413   24.929192 H          1 MOL1         0.0830
     136    C4      19.694077   17.784276   23.845139 C.3        1 MOL1         0.1214
     137    H7      18.697599   17.345900   23.998583 H          1 MOL1         0.0787
     138    C5      19.821539   18.235314   22.378710 C.3        1 MOL1        -0.1765
     139    H8      20.810617   17.984245   21.977850 H          1 MOL1         0.0830
     140    H9      19.075277   17.723888   21.758620 H          1 MOL1         0.0830
     141    O1      20.722415   16.863584   24.184432 O.3        1 MOL1        -0.5512
     142    H10     20.502804   16.516131   25.072459 H          1 MOL1         0.3776
@<TRIPOS>BOND
    1     1     2    1
    2     1     3    1
    3     1     4    1
    4     4     5    1
    5     4     6    1
    6     6     7    1
    7     4     8    1
    8     8     9    1
    9     8    10    1
   10    10    11    1
   11     8    12    1
   12    12    13    1
   13    12    14    1
   14    14    15    1
   15     1    16    1
   16    14    16    1
   17    14    17    1
   18    17    18    1
   19    17    19    1
   20    17    20    1
   21    20    21    1
   22    22    23    1
   23    22    24    1
   24    22    25    1
   25    25    26    1
   26    25    27    1
   27    27    28    1
   28    25    29    1
   29    29    30    1
   30    29    31    1
   31    31    32    1
   32     3    33    1
   33    29    33    1
   34    33    34    1
   35    33    35    1
   36    35    36    1
   37    22    37    1
   38    35    37    1
   39    35    38    1
   40    38    39    1
   41    38    40    1
   42    38    41    1
   43    41    42    1
   44    43    44    1
   45    43    45    1
   46    43    46    1
   47    46    47    1
   48    46    48    1
   49    48    49    1
   50    46    50    1
   51    50    51    1
   52    50    52    1
   53    52    53    1
   54    24    54    1
   55    50    54    1
   56    54    55    1
   57    54    56    1
   58    56    57    1
   59    43    58    1
   60    56    58    1
   61    56    59    1
   62    59    60    1
   63    59    61    1
   64    59    62    1
   65    62    63    1
   66    64    65    1
   67    64    66    1
   68    64    67    1
   69    67    68    1
   70    67    69    1
   71    69    70    1
   72    67    71    1
   73    71    72    1
   74    71    73    1
   75    73    74    1
   76    45    75    1
   77    71    75    1
   78    75    76    1
   79    75    77    1
   80    77    78    1
   81    64    79    1
   82    77    79    1
   83    77    80    1
   84    80    81    1
   85    80    82    1
   86    80    83    1
   87    83    84    1
   88    85    86    1
   89    85    87    1
   90    85    88    1
   91    88    89    1
   92    88    90    1
   93    90    91    1
   94    88    92    1
   95    92    93    1
   96    92    94    1
   97    94    95    1
   98    66    96    1
   99    92    96    1
  100    96    97    1
  101    96    98    1
  102    98    99    1
  103    85   100    1
  104    98   100    1
  105    98   101    1
  106   101   102    1
  107   101   103    1
  108   101   104    1
  109   104   105    1
  110   106   107    1
  111    12   108    1
  112   106   108    1
  113   106   109    1
  114   109   110    1
  115   109   111    1
  116   111   112    1
  117   109   113    1
  118   113   114    1
  119   113   115    1
  120   115   116    1
  121    87   117    1
  122   113   117    1
  123   117   118    1
  124   117   119    1
  125   119   120    1
  126   106   121    1
  127   119   121    1
  128   119   122    1
  129   122   123    1
  130   122   124    1
  131   122   125    1
  132   125   126    1
  133   127   128    1
  134   127   129    1
  135   127   130    1
  136   130   131    1
  137   130   132    1
  138   130   133    1
  139   133   134    1
  140   133   135    1
  141   133   136    1
  142   136   137    1
  143   127   138    1
  144   136   138    1
  145   138   139    1
  146   138   140    1
  147   136   141    1
  148   141   142    1
@<TRIPOS>SUBSTRUCTURE
       1 MOL1            1 RESIDUE      1      MOL     
       2 MOL1          142 RESIDUE      1      MOL     
@<SCITEGIC>MOL_PROPERTY
VM2 Rank
SciTegic.value.IntegerValue
4

@<SCITEGIC>MOL_PROPERTY
Conf_Id
SciTegic.value.IntegerValue
26237

@<SCITEGIC>MOL_PROPERTY
Probability
SciTegic.value.DoubleValue
0.96

@<SCITEGIC>MOL_PROPERTY
Sum Probability
SciTegic.value.DoubleValue
4.30

@<SCITEGIC>MOL_PROPERTY
Delta G
SciTegic.value.DoubleValue
0.142

@<SCITEGIC>MOL_PROPERTY
G
SciTegic.value.DoubleValue
549.498

@<SCITEGIC>MOL_PROPERTY
E
SciTegic.value.DoubleValue
365.375

@<SCITEGIC>MOL_PROPERTY
-TS
SciTegic.value.DoubleValue
184.123

@<SCITEGIC>MOL_PROPERTY
U+W
SciTegic.value.DoubleValue
240.181

@<SCITEGIC>MOL_PROPERTY
U
SciTegic.value.DoubleValue
278.919

@<SCITEGIC>MOL_PROPERTY
W
SciTegic.value.DoubleValue
-38.739

@<SCITEGIC>MOL_PROPERTY
W(PB)
SciTegic.value.DoubleValue
-44.851

@<SCITEGIC>MOL_PROPERTY
W(SA)
SciTegic.value.DoubleValue
6.112

@<SCITEGIC>MOL_PROPERTY
Valence
SciTegic.value.DoubleValue
156.702

@<SCITEGIC>MOL_PROPERTY
Coulomb
SciTegic.value.DoubleValue
147.241

@<SCITEGIC>MOL_PROPERTY
VdW
SciTegic.value.DoubleValue
-25.023

@<SCITEGIC>MOL_PROPERTY
VdW6
SciTegic.value.DoubleValue
-167.846

@<SCITEGIC>MOL_PROPERTY
VdW12
SciTegic.value.DoubleValue
142.823

@<SCITEGIC>MOL_PROPERTY
Bond
SciTegic.value.DoubleValue
4.195

@<SCITEGIC>MOL_PROPERTY
Angle
SciTegic.value.DoubleValue
12.493

@<SCITEGIC>MOL_PROPERTY
Pdih
SciTegic.value.DoubleValue
140.013

@<SCITEGIC>MOL_PROPERTY
Idih
SciTegic.value.DoubleValue
0.000

@<SCITEGIC>MOL_PROPERTY
Tether
SciTegic.value.DoubleValue
0.000

@<TRIPOS>MOLECULE
CD_guest-4_vm2_single.mol2 : vm2 host+ligand conformer 5
         142         148           2
SMALL
USER_CHARGES
 
@<TRIPOS>ATOM
       1    C1      16.169932   15.187237   20.997853 C.3        1 MOL1         0.2972
       2    H1      15.083815   15.068520   20.891294 H          1 MOL1         0.0751
       3    O1      16.529934   16.555556   21.277857 O.3        1 MOL1        -0.3740
       4    C2      16.728753   14.271777   22.118953 C.3        1 MOL1         0.1003
       5    H2      16.541547   13.234033   21.813691 H          1 MOL1         0.0783
       6    O2      16.078321   14.506860   23.376399 O.3        1 MOL1        -0.5519
       7    H3      16.216247   15.460882   23.605324 H          1 MOL1         0.3769
       8    C3      18.259534   14.460031   22.247957 C.3        1 MOL1         0.1053
       9    H4      18.448647   15.486704   22.585139 H          1 MOL1         0.0783
      10    O3      18.779153   13.531285   23.204807 O.3        1 MOL1        -0.5519
      11    H5      18.152601   13.566123   23.961729 H          1 MOL1         0.3769
      12    C4      18.962086   14.256206   20.882194 C.3        1 MOL1         0.1018
      13    H6      18.969480   13.181189   20.659202 H          1 MOL1         0.0783
      14    C5      18.261847   15.024960   19.725957 C.3        1 MOL1         0.1043
      15    H7      18.473192   16.096378   19.842706 H          1 MOL1         0.0783
      16    O4      16.829307   14.802069   19.772932 O.3        1 MOL1        -0.3740
      17    C6      18.751807   14.596536   18.324654 C.3        1 MOL1         0.0138
      18    H8      19.819145   14.833217   18.227732 H          1 MOL1         0.0794
      19    H9      18.217099   15.186750   17.568527 H          1 MOL1         0.0794
      20    O5      18.534209   13.199053   18.107615 O.3        1 MOL1        -0.5486
      21    H10     17.572428   13.047447   18.243613 H          1 MOL1         0.3769
      22    C7      15.057923   20.284070   22.259002 C.3        1 MOL1         0.2972
      23    H11     14.471564   21.153354   22.581680 H          1 MOL1         0.0751
      24    O6      16.293691   20.682038   21.630665 O.3        1 MOL1        -0.3740
      25    C8      15.376237   19.380637   23.476642 C.3        1 MOL1         0.1003
      26    H12     14.415986   19.033340   23.879426 H          1 MOL1         0.0783
      27    O7      16.073995   20.102612   24.502038 O.3        1 MOL1        -0.5519
      28    H13     16.913992   20.446349   24.105944 H          1 MOL1         0.3769
      29    C9      16.187642   18.137869   23.048709 C.3        1 MOL1         0.1053
      30    H14     17.175827   18.479211   22.718923 H          1 MOL1         0.0783
      31    O8      16.323892   17.263418   24.172550 O.3        1 MOL1        -0.5519
      32    H15     16.560463   17.852502   24.922839 H          1 MOL1         0.3769
      33    C10     15.514160   17.388644   21.871895 C.3        1 MOL1         0.1018
      34    H16     14.673986   16.799500   22.263259 H          1 MOL1         0.0783
      35    C11     15.020037   18.348996   20.753918 C.3        1 MOL1         0.1043
      36    H17     15.905003   18.701533   20.211564 H          1 MOL1         0.0783
      37    O9      14.310867   19.483521   21.316914 O.3        1 MOL1        -0.3740
      38    C12     14.085347   17.667462   19.730121 C.3        1 MOL1         0.0138
      39    H18     14.642669   16.880842   19.204212 H          1 MOL1         0.0794
      40    H19     13.781635   18.409599   18.979722 H          1 MOL1         0.0794
      41    O10     12.934749   17.111066   20.372526 O.3        1 MOL1        -0.5486
      42    H20     12.496333   17.853892   20.844444 H          1 MOL1         0.3769
      43    C13     18.405530   23.962278   20.403228 C.3        1 MOL1         0.2972
      44    H21     18.828077   24.873799   19.961069 H          1 MOL1         0.0751
      45    O11     19.415795   23.146639   21.027778 O.3        1 MOL1        -0.3740
      46    C14     17.336201   24.306417   21.464903 C.3        1 MOL1         0.1003
      47    H22     16.532787   24.853282   20.954568 H          1 MOL1         0.0783
      48    O12     17.888267   25.136031   22.499773 O.3        1 MOL1        -0.5519
      49    H23     18.722022   24.699929   22.812025 H          1 MOL1         0.3769
      50    C15     16.727461   23.018002   22.070899 C.3        1 MOL1         0.1053
      51    H24     17.498819   22.553675   22.697424 H          1 MOL1         0.0783
      52    O13     15.603121   23.382294   22.877719 O.3        1 MOL1        -0.5519
      53    H25     15.932820   24.090542   23.473207 H          1 MOL1         0.3769
      54    C16     16.302710   21.977650   20.992200 C.3        1 MOL1         0.1018
      55    H26     15.310293   22.238322   20.600676 H          1 MOL1         0.0783
      56    C17     17.296396   21.867726   19.799519 C.3        1 MOL1         0.1043
      57    H27     18.152843   21.252015   20.104494 H          1 MOL1         0.0783
      58    O14     17.747147   23.180736   19.390096 O.3        1 MOL1        -0.3740
      59    C18     16.645066   21.221125   18.559283 C.3        1 MOL1         0.0138
      60    H28     15.850651   21.880191   18.183984 H          1 MOL1         0.0794
      61    H29     16.179251   20.271061   18.841080 H          1 MOL1         0.0794
      62    O15     17.629684   20.998374   17.548190 O.3        1 MOL1        -0.5486
      63    H30     18.075338   21.863305   17.408986 H          1 MOL1         0.3769
      64    C19     23.501616   22.841819   21.592053 C.3        1 MOL1         0.2972
      65    H31     24.585245   23.004428   21.658143 H          1 MOL1         0.0751
      66    O16     23.161712   21.446364   21.721577 O.3        1 MOL1        -0.3740
      67    C20     22.755566   23.631002   22.698347 C.3        1 MOL1         0.1003
      68    H32     22.971829   24.695700   22.541310 H          1 MOL1         0.0783
      69    O17     23.208893   23.250908   24.007200 O.3        1 MOL1        -0.5519
      70    H33     23.193490   22.261211   24.053703 H          1 MOL1         0.3769
      71    C21     21.224628   23.435161   22.573948 C.3        1 MOL1         0.1053
      72    H34     20.992832   22.389973   22.809340 H          1 MOL1         0.0783
      73    O18     20.558520   24.300126   23.499889 O.3        1 MOL1        -0.5519
      74    H35     21.026416   24.168426   24.353956 H          1 MOL1         0.3769
      75    C22     20.728833   23.725107   21.135580 C.3        1 MOL1         0.1018
      76    H36     20.712033   24.813299   20.989560 H          1 MOL1         0.0783
      77    C23     21.612986   23.055246   20.046860 C.3        1 MOL1         0.1043
      78    H37     21.425074   21.973321   20.064476 H          1 MOL1         0.0783
      79    O19     23.012403   23.310325   20.317946 O.3        1 MOL1        -0.3740
      80    C24     21.313875   23.560421   18.617595 C.3        1 MOL1         0.0138
      81    H38     20.287413   23.281960   18.345839 H          1 MOL1         0.0794
      82    H39     21.986481   23.050473   17.915059 H          1 MOL1         0.0794
      83    O20     21.481463   24.978259   18.524667 O.3        1 MOL1        -0.5486
      84    H40     22.404698   25.164548   18.806510 H          1 MOL1         0.3769
      85    C25     24.830761   17.684146   22.152226 C.3        1 MOL1         0.2972
      86    H41     25.474004   16.812542   22.329349 H          1 MOL1         0.0751
      87    O21     23.582737   17.309288   21.532747 O.3        1 MOL1        -0.3740
      88    C26     24.536442   18.417156   23.485947 C.3        1 MOL1         0.1003
      89    H42     25.497529   18.778096   23.874833 H          1 MOL1         0.0783
      90    O22     23.942077   17.543686   24.458431 O.3        1 MOL1        -0.5519
      91    H43     23.936108   16.635100   24.069986 H          1 MOL1         0.3769
      92    C27     23.630851   19.645056   23.237864 C.3        1 MOL1         0.1053
      93    H44     22.655744   19.284014   22.889080 H          1 MOL1         0.0783
      94    O23     23.473445   20.365741   24.463303 O.3        1 MOL1        -0.5519
      95    H45     23.312372   19.667511   25.137391 H          1 MOL1         0.3769
      96    C28     24.223559   20.569176   22.146161 C.3        1 MOL1         0.1018
      97    H46     25.063521   21.123989   22.584999 H          1 MOL1         0.0783
      98    C29     24.703041   19.782759   20.891883 C.3        1 MOL1         0.1043
      99    H47     23.816589   19.446445   20.338062 H          1 MOL1         0.0783
     100    O24     25.492714   18.631658   21.287130 O.3        1 MOL1        -0.3740
     101    C30     25.562445   20.632370   19.929244 C.3        1 MOL1         0.0138
     102    H48     24.949671   21.450069   19.527353 H          1 MOL1         0.0794
     103    H49     25.866545   20.005052   19.080599 H          1 MOL1         0.0794
     104    O25     26.713976   21.160082   20.594423 O.3        1 MOL1        -0.5486
     105    H50     27.205111   20.385818   20.949264 H          1 MOL1         0.3769
     106    C31     21.370477   13.937457   20.572677 C.3        1 MOL1         0.2972
     107    H51     21.004987   12.968361   20.209832 H          1 MOL1         0.0751
     108    O26     20.294203   14.789161   21.016095 O.3        1 MOL1        -0.3740
     109    C32     22.340032   13.740468   21.763530 C.3        1 MOL1         0.1003
     110    H52     23.190037   13.147979   21.400771 H          1 MOL1         0.0783
     111    O27     21.699616   13.034883   22.838582 O.3        1 MOL1        -0.5519
     112    H53     20.778073   13.390108   22.919631 H          1 MOL1         0.3769
     113    C33     22.885186   15.102203   22.258566 C.3        1 MOL1         0.1053
     114    H54     22.046949   15.662574   22.692703 H          1 MOL1         0.0783
     115    O28     23.879827   14.865618   23.260267 O.3        1 MOL1        -0.5519
     116    H55     23.514154   14.134478   23.808856 H          1 MOL1         0.3769
     117    C34     23.473189   15.941258   21.090564 C.3        1 MOL1         0.1018
     118    H56     24.451037   15.534602   20.800179 H          1 MOL1         0.0783
     119    C35     22.547446   15.956804   19.842283 C.3        1 MOL1         0.1043
     120    H57     21.678942   16.591816   20.054478 H          1 MOL1         0.0783
     121    O29     22.099041   14.616058   19.529242 O.3        1 MOL1        -0.3740
     122    C36     23.246248   16.521712   18.585667 C.3        1 MOL1         0.0138
     123    H58     23.585309   17.545329   18.792688 H          1 MOL1         0.0794
     124    H59     22.514072   16.575224   17.768990 H          1 MOL1         0.0794
     125    O30     24.355392   15.703354   18.202759 O.3        1 MOL1        -0.5486
     126    H60     24.002193   14.789385   18.120312 H          1 MOL1         0.3769
     127    C1      20.030041   18.147397   22.310337 C.3        1 MOL1        -0.1689
     128    H1      20.884923   17.895942   21.672885 H          1 MOL1         0.0830
     129    H2      19.143942   17.657501   21.887310 H          1 MOL1         0.0830
     130    C2      20.266019   17.675150   23.756535 C.3        1 MOL1        -0.1689
     131    H3      19.809150   16.698239   23.959891 H          1 MOL1         0.0830
     132    H4      21.342687   17.584820   23.941862 H          1 MOL1         0.0830
     133    C3      19.689277   18.779987   24.654082 C.3        1 MOL1        -0.1765
     134    H5      20.202024   18.825137   25.623118 H          1 MOL1         0.0830
     135    H6      18.626059   18.588828   24.838452 H          1 MOL1         0.0830
     136    C4      19.860657   20.080152   23.858971 C.3        1 MOL1         0.1214
     137    H7      20.847984   20.507523   24.079778 H          1 MOL1         0.0787
     138    C5      19.811606   19.674735   22.374601 C.3        1 MOL1        -0.1765
     139    H8      18.843616   19.936813   21.932595 H          1 MOL1         0.0830
     140    H9      20.586405   20.206674   21.809120 H          1 MOL1         0.0830
     141    O1      18.821955   20.996215   24.174269 O.3        1 MOL1        -0.5512
     142    H10     18.988831   21.301117   25.088827 H          1 MOL1         0.3776
@<TRIPOS>BOND
    1     1     2    1
    2     1     3    1
    3     1     4    1
    4     4     5    1
    5     4     6    1
    6     6     7    1
    7     4     8    1
    8     8     9    1
    9     8    10    1
   10    10    11    1
   11     8    12    1
   12    12    13    1
   13    12    14    1
   14    14    15    1
   15     1    16    1
   16    14    16    1
   17    14    17    1
   18    17    18    1
   19    17    19    1
   20    17    20    1
   21    20    21    1
   22    22    23    1
   23    22    24    1
   24    22    25    1
   25    25    26    1
   26    25    27    1
   27    27    28    1
   28    25    29    1
   29    29    30    1
   30    29    31    1
   31    31    32    1
   32     3    33    1
   33    29    33    1
   34    33    34    1
   35    33    35    1
   36    35    36    1
   37    22    37    1
   38    35    37    1
   39    35    38    1
   40    38    39    1
   41    38    40    1
   42    38    41    1
   43    41    42    1
   44    43    44    1
   45    43    45    1
   46    43    46    1
   47    46    47    1
   48    46    48    1
   49    48    49    1
   50    46    50    1
   51    50    51    1
   52    50    52    1
   53    52    53    1
   54    24    54    1
   55    50    54    1
   56    54    55    1
   57    54    56    1
   58    56    57    1
   59    43    58    1
   60    56    58    1
   61    56    59    1
   62    59    60    1
   63    59    61    1
   64    59    62    1
   65    62    63    1
   66    64    65    1
   67    64    66    1
   68    64    67    1
   69    67    68    1
   70    67    69    1
   71    69    70    1
   72    67    71    1
   73    71    72    1
   74    71    73    1
   75    73    74    1
   76    45    75    1
   77    71    75    1
   78    75    76    1
   79    75    77    1
   80    77    78    1
   81    64    79    1
   82    77    79    1
   83    77    80    1
   84    80    81    1
   85    80    82    1
   86    80    83    1
   87    83    84    1
   88    85    86    1
   89    85    87    1
   90    85    88    1
   91    88    89    1
   92    88    90    1
   93    90    91    1
   94    88    92    1
   95    92    93    1
   96    92    94    1
   97    94    95    1
   98    66    96    1
   99    92    96    1
  100    96    97    1
  101    96    98    1
  102    98    99    1
  103    85   100    1
  104    98   100    1
  105    98   101    1
  106   101   102    1
  107   101   103    1
  108   101   104    1
  109   104   105    1
  110   106   107    1
  111    12   108    1
  112   106   108    1
  113   106   109    1
  114   109   110    1
  115   109   111    1
  116   111   112    1
  117   109   113    1
  118   113   114    1
  119   113   115    1
  120   115   116    1
  121    87   117    1
  122   113   117    1
  123   117   118    1
  124   117   119    1
  125   119   120    1
  126   106   121    1
  127   119   121    1
  128   119   122    1
  129   122   123    1
  130   122   124    1
  131   122   125    1
  132   125   126    1
  133   127   128    1
  134   127   129    1
  135   127   130    1
  136   130   131    1
  137   130   132    1
  138   130   133    1
  139   133   134    1
  140   133   135    1
  141   133   136    1
  142   136   137    1
  143   127   138    1
  144   136   138    1
  145   138   139    1
  146   138   140    1
  147   136   141    1
  148   141   142    1
@<TRIPOS>SUBSTRUCTURE
       1 MOL1            1 RESIDUE      1      MOL     
       2 MOL1          142 RESIDUE      1      MOL     
@<SCITEGIC>MOL_PROPERTY
VM2 Rank
SciTegic.value.IntegerValue
5

@<SCITEGIC>MOL_PROPERTY
Conf_Id
SciTegic.value.IntegerValue
18339

@<SCITEGIC>MOL_PROPERTY
Probability
SciTegic.value.DoubleValue
0.96

@<SCITEGIC>MOL_PROPERTY
Sum Probability
SciTegic.value.DoubleValue
5.26

@<SCITEGIC>MOL_PROPERTY
Delta G
SciTegic.value.DoubleValue
0.142

@<SCITEGIC>MOL_PROPERTY
G
SciTegic.value.DoubleValue
549.498

@<SCITEGIC>MOL_PROPERTY
E
SciTegic.value.DoubleValue
365.004

@<SCITEGIC>MOL_PROPERTY
-TS
SciTegic.value.DoubleValue
184.494

@<SCITEGIC>MOL_PROPERTY
U+W
SciTegic.value.DoubleValue
239.810

@<SCITEGIC>MOL_PROPERTY
U
SciTegic.value.DoubleValue
272.864

@<SCITEGIC>MOL_PROPERTY
W
SciTegic.value.DoubleValue
-33.055

@<SCITEGIC>MOL_PROPERTY
W(PB)
SciTegic.value.DoubleValue
-39.184

@<SCITEGIC>MOL_PROPERTY
W(SA)
SciTegic.value.DoubleValue
6.130

@<SCITEGIC>MOL_PROPERTY
Valence
SciTegic.value.DoubleValue
158.141

@<SCITEGIC>MOL_PROPERTY
Coulomb
SciTegic.value.DoubleValue
138.835

@<SCITEGIC>MOL_PROPERTY
VdW
SciTegic.value.DoubleValue
-24.111

@<SCITEGIC>MOL_PROPERTY
VdW6
SciTegic.value.DoubleValue
-169.736

@<SCITEGIC>MOL_PROPERTY
VdW12
SciTegic.value.DoubleValue
145.625

@<SCITEGIC>MOL_PROPERTY
Bond
SciTegic.value.DoubleValue
4.357

@<SCITEGIC>MOL_PROPERTY
Angle
SciTegic.value.DoubleValue
12.366

@<SCITEGIC>MOL_PROPERTY
Pdih
SciTegic.value.DoubleValue
141.418

@<SCITEGIC>MOL_PROPERTY
Idih
SciTegic.value.DoubleValue
0.000

@<SCITEGIC>MOL_PROPERTY
Tether
SciTegic.value.DoubleValue
0.000

@<TRIPOS>MOLECULE
CD_guest-4_vm2_single.mol2 : vm2 host+ligand conformer 6
         142         148           2
SMALL
USER_CHARGES
 
@<TRIPOS>ATOM
       1    C1      16.220020   15.069674   21.077629 C.3        1 MOL1         0.2972
       2    H1      15.135318   14.919084   21.000649 H          1 MOL1         0.0751
       3    O1      16.553222   16.459074   21.274405 O.3        1 MOL1        -0.3740
       4    C2      16.819207   14.241562   22.243830 C.3        1 MOL1         0.1003
       5    H2      16.641826   13.182501   22.015727 H          1 MOL1         0.0783
       6    O2      16.192244   14.557616   23.496093 O.3        1 MOL1        -0.5519
       7    H3      16.267677   15.536626   23.628300 H          1 MOL1         0.3769
       8    C3      18.349328   14.459685   22.326964 C.3        1 MOL1         0.1053
       9    H4      18.531270   15.504372   22.604729 H          1 MOL1         0.0783
      10    O3      18.905246   13.588933   23.317833 O.3        1 MOL1        -0.5519
      11    H5      18.309028   13.670982   24.095023 H          1 MOL1         0.3769
      12    C4      19.030985   14.202121   20.961011 C.3        1 MOL1         0.1018
      13    H6      19.077450   13.116702   20.801405 H          1 MOL1         0.0783
      14    C5      18.288377   14.882642   19.775923 C.3        1 MOL1         0.1043
      15    H7      18.471547   15.964363   19.827535 H          1 MOL1         0.0783
      16    O4      16.864856   14.625545   19.865424 O.3        1 MOL1        -0.3740
      17    C6      18.763628   14.391971   18.389982 C.3        1 MOL1         0.0138
      18    H8      19.814345   14.675653   18.248996 H          1 MOL1         0.0794
      19    H9      18.180970   14.906977   17.614537 H          1 MOL1         0.0794
      20    O5      18.614014   12.974689   18.263778 O.3        1 MOL1        -0.5486
      21    H10     17.662811   12.783591   18.422436 H          1 MOL1         0.3769
      22    C7      14.954011   20.212259   21.873013 C.3        1 MOL1         0.2972
      23    H11     14.332934   21.093133   22.079649 H          1 MOL1         0.0751
      24    O6      16.215503   20.576115   21.275422 O.3        1 MOL1        -0.3740
      25    C8      15.226969   19.423294   23.178677 C.3        1 MOL1         0.1003
      26    H12     14.254811   19.086985   23.562028 H          1 MOL1         0.0783
      27    O7      15.864585   20.241025   24.172510 O.3        1 MOL1        -0.5519
      28    H13     15.804023   21.176347   23.861493 H          1 MOL1         0.3769
      29    C9      16.088582   18.173122   22.888564 C.3        1 MOL1         0.1053
      30    H14     17.083024   18.514726   22.577706 H          1 MOL1         0.0783
      31    O8      16.195821   17.396729   24.084802 O.3        1 MOL1        -0.5519
      32    H15     16.352872   18.061713   24.792228 H          1 MOL1         0.3769
      33    C10     15.493376   17.315063   21.744040 C.3        1 MOL1         0.1018
      34    H16     14.647513   16.740397   22.144492 H          1 MOL1         0.0783
      35    C11     15.031289   18.167464   20.527190 C.3        1 MOL1         0.1043
      36    H17     15.925103   18.508788   19.988642 H          1 MOL1         0.0783
      37    O9      14.268251   19.316869   20.972263 O.3        1 MOL1        -0.3740
      38    C12     14.157124   17.379972   19.525861 C.3        1 MOL1         0.0138
      39    H18     14.755684   16.570639   19.086996 H          1 MOL1         0.0794
      40    H19     13.866133   18.051640   18.707051 H          1 MOL1         0.0794
      41    O10     12.995108   16.842967   20.164691 O.3        1 MOL1        -0.5486
      42    H20     12.517252   17.608503   20.554953 H          1 MOL1         0.3769
      43    C13     18.497403   23.991755   20.606364 C.3        1 MOL1         0.2972
      44    H21     18.868884   24.976222   20.294620 H          1 MOL1         0.0751
      45    O11     19.553409   23.154896   21.118426 O.3        1 MOL1        -0.3740
      46    C14     17.432498   24.143106   21.720331 C.3        1 MOL1         0.1003
      47    H22     16.608393   24.739161   21.307158 H          1 MOL1         0.0783
      48    O12     17.976803   24.822607   22.863227 O.3        1 MOL1        -0.5519
      49    H23     18.900851   24.489679   22.994100 H          1 MOL1         0.3769
      50    C15     16.861429   22.763861   22.132317 C.3        1 MOL1         0.1053
      51    H24     17.666248   22.194342   22.614614 H          1 MOL1         0.0783
      52    O13     15.792053   22.970363   23.061486 O.3        1 MOL1        -0.5519
      53    H25     16.108392   23.693556   23.650041 H          1 MOL1         0.3769
      54    C16     16.376001   21.957533   20.894751 C.3        1 MOL1         0.1018
      55    H26     15.432828   22.379663   20.523251 H          1 MOL1         0.0783
      56    C17     17.420861   21.967788   19.745216 C.3        1 MOL1         0.1043
      57    H27     18.272786   21.341349   20.040245 H          1 MOL1         0.0783
      58    O14     17.874250   23.319636   19.492952 O.3        1 MOL1        -0.3740
      59    C18     16.860931   21.409366   18.417961 C.3        1 MOL1         0.0138
      60    H28     16.524812   20.376194   18.575730 H          1 MOL1         0.0794
      61    H29     17.671071   21.382944   17.677100 H          1 MOL1         0.0794
      62    O15     15.778194   22.212028   17.938415 O.3        1 MOL1        -0.5486
      63    H30     16.118669   23.133846   17.904227 H          1 MOL1         0.3769
      64    C19     23.669221   22.802679   21.386401 C.3        1 MOL1         0.2972
      65    H31     24.758975   22.932488   21.360072 H          1 MOL1         0.0751
      66    O16     23.301229   21.430244   21.631777 O.3        1 MOL1        -0.3740
      67    C20     23.023771   23.697011   22.476591 C.3        1 MOL1         0.1003
      68    H32     23.228023   24.740815   22.204830 H          1 MOL1         0.0783
      69    O17     23.580736   23.438291   23.774072 O.3        1 MOL1        -0.5519
      70    H33     23.484858   22.467988   23.950787 H          1 MOL1         0.3769
      71    C21     21.488529   23.500904   22.489838 C.3        1 MOL1         0.1053
      72    H34     21.280270   22.471250   22.803350 H          1 MOL1         0.0783
      73    O18     20.894029   24.417867   23.413874 O.3        1 MOL1        -0.5519
      74    H35     21.460107   24.374950   24.216602 H          1 MOL1         0.3769
      75    C22     20.883081   23.709206   21.079434 C.3        1 MOL1         0.1018
      76    H36     20.874847   24.786256   20.866586 H          1 MOL1         0.0783
      77    C23     21.673455   22.961822   19.967869 C.3        1 MOL1         0.1043
      78    H37     21.465582   21.887178   20.054930 H          1 MOL1         0.0783
      79    O19     23.096195   23.196228   20.121561 O.3        1 MOL1        -0.3740
      80    C24     21.283568   23.404049   18.539728 C.3        1 MOL1         0.0138
      81    H38     20.228678   23.159528   18.361357 H          1 MOL1         0.0794
      82    H39     21.878009   22.828253   17.817864 H          1 MOL1         0.0794
      83    O20     21.503514   24.805950   18.356333 O.3        1 MOL1        -0.5486
      84    H40     22.450864   24.964046   18.566172 H          1 MOL1         0.3769
      85    C25     24.760492   17.668744   22.489904 C.3        1 MOL1         0.2972
      86    H41     25.341354   16.784786   22.782214 H          1 MOL1         0.0751
      87    O21     23.518835   17.299958   21.854956 O.3        1 MOL1        -0.3740
      88    C26     24.460575   18.538605   23.735881 C.3        1 MOL1         0.1003
      89    H42     25.426936   18.871518   24.136127 H          1 MOL1         0.0783
      90    O22     23.773514   17.791722   24.749527 O.3        1 MOL1        -0.5519
      91    H43     22.901538   17.517404   24.369135 H          1 MOL1         0.3769
      92    C27     23.648509   19.794205   23.350217 C.3        1 MOL1         0.1053
      93    H44     22.656915   19.465994   23.014115 H          1 MOL1         0.0783
      94    O23     23.522950   20.635385   24.500763 O.3        1 MOL1        -0.5519
      95    H45     23.254969   20.029184   25.227164 H          1 MOL1         0.3769
      96    C28     24.317856   20.575881   22.192935 C.3        1 MOL1         0.1018
      97    H46     25.161765   21.149664   22.598746 H          1 MOL1         0.0783
      98    C29     24.803176   19.648581   21.043351 C.3        1 MOL1         0.1043
      99    H47     23.914699   19.318800   20.492051 H          1 MOL1         0.0783
     100    O24     25.507614   18.492150   21.567592 O.3        1 MOL1        -0.3740
     101    C30     25.739429   20.357639   20.039881 C.3        1 MOL1         0.0138
     102    H48     25.186693   21.166467   19.543643 H          1 MOL1         0.0794
     103    H49     26.034380   19.639438   19.263167 H          1 MOL1         0.0794
     104    O25     26.896843   20.882155   20.696803 O.3        1 MOL1        -0.5486
     105    H50     27.329887   20.120032   21.142163 H          1 MOL1         0.3769
     106    C31     21.426427   14.000638   20.521798 C.3        1 MOL1         0.2972
     107    H51     21.070327   13.073191   20.054969 H          1 MOL1         0.0751
     108    O26     20.341555   14.791431   21.043490 O.3        1 MOL1        -0.3740
     109    C32     22.395559   13.690716   21.686415 C.3        1 MOL1         0.1003
     110    H52     23.242606   13.133005   21.266362 H          1 MOL1         0.0783
     111    O27     21.750734   12.885483   22.686884 O.3        1 MOL1        -0.5519
     112    H53     20.869232   13.297912   22.873769 H          1 MOL1         0.3769
     113    C33     22.948397   14.994926   22.313395 C.3        1 MOL1         0.1053
     114    H54     22.125466   15.484293   22.851468 H          1 MOL1         0.0783
     115    O28     23.993086   14.649566   23.228163 O.3        1 MOL1        -0.5519
     116    H55     23.605007   13.965564   23.816426 H          1 MOL1         0.3769
     117    C34     23.479767   15.992603   21.244113 C.3        1 MOL1         0.1018
     118    H56     24.476736   15.676486   20.909012 H          1 MOL1         0.0783
     119    C35     22.553003   16.109158   20.001947 C.3        1 MOL1         0.1043
     120    H57     21.672828   16.710281   20.265972 H          1 MOL1         0.0783
     121    O29     22.149934   14.791281   19.560499 O.3        1 MOL1        -0.3740
     122    C36     23.264510   16.775163   18.805846 C.3        1 MOL1         0.0138
     123    H58     24.094164   16.135039   18.476919 H          1 MOL1         0.0794
     124    H59     23.691693   17.733457   19.119329 H          1 MOL1         0.0794
     125    O30     22.338324   16.982432   17.737811 O.3        1 MOL1        -0.5486
     126    H60     21.926556   16.107439   17.563111 H          1 MOL1         0.3769
     127    C1      19.730042   19.843270   22.369486 C.3        1 MOL1        -0.1689
     128    H1      20.430969   20.362916   21.703435 H          1 MOL1         0.0830
     129    H2      18.713766   20.035227   22.007436 H          1 MOL1         0.0830
     130    C2      19.852071   20.323407   23.823424 C.3        1 MOL1        -0.1689
     131    H3      20.895943   20.565052   24.050228 H          1 MOL1         0.0830
     132    H4      19.247636   21.217766   24.022846 H          1 MOL1         0.0830
     133    C3      19.414931   19.123933   24.676968 C.3        1 MOL1        -0.1765
     134    H5      18.330191   19.165014   24.829933 H          1 MOL1         0.0830
     135    H6      19.891197   19.135247   25.665790 H          1 MOL1         0.0830
     136    C4      19.765312   17.863176   23.865887 C.3        1 MOL1         0.1214
     137    H7      18.930716   17.152070   23.920263 H          1 MOL1         0.0787
     138    C5      19.985809   18.323086   22.409646 C.3        1 MOL1        -0.1765
     139    H8      21.012754   18.107477   22.094184 H          1 MOL1         0.0830
     140    H9      19.314153   17.791984   21.723430 H          1 MOL1         0.0830
     141    O1      20.953523   17.272031   24.377807 O.3        1 MOL1        -0.5512
     142    H10     20.741183   16.973257   25.284783 H          1 MOL1         0.3776
@<TRIPOS>BOND
    1     1     2    1
    2     1     3    1
    3     1     4    1
    4     4     5    1
    5     4     6    1
    6     6     7    1
    7     4     8    1
    8     8     9    1
    9     8    10    1
   10    10    11    1
   11     8    12    1
   12    12    13    1
   13    12    14    1
   14    14    15    1
   15     1    16    1
   16    14    16    1
   17    14    17    1
   18    17    18    1
   19    17    19    1
   20    17    20    1
   21    20    21    1
   22    22    23    1
   23    22    24    1
   24    22    25    1
   25    25    26    1
   26    25    27    1
   27    27    28    1
   28    25    29    1
   29    29    30    1
   30    29    31    1
   31    31    32    1
   32     3    33    1
   33    29    33    1
   34    33    34    1
   35    33    35    1
   36    35    36    1
   37    22    37    1
   38    35    37    1
   39    35    38    1
   40    38    39    1
   41    38    40    1
   42    38    41    1
   43    41    42    1
   44    43    44    1
   45    43    45    1
   46    43    46    1
   47    46    47    1
   48    46    48    1
   49    48    49    1
   50    46    50    1
   51    50    51    1
   52    50    52    1
   53    52    53    1
   54    24    54    1
   55    50    54    1
   56    54    55    1
   57    54    56    1
   58    56    57    1
   59    43    58    1
   60    56    58    1
   61    56    59    1
   62    59    60    1
   63    59    61    1
   64    59    62    1
   65    62    63    1
   66    64    65    1
   67    64    66    1
   68    64    67    1
   69    67    68    1
   70    67    69    1
   71    69    70    1
   72    67    71    1
   73    71    72    1
   74    71    73    1
   75    73    74    1
   76    45    75    1
   77    71    75    1
   78    75    76    1
   79    75    77    1
   80    77    78    1
   81    64    79    1
   82    77    79    1
   83    77    80    1
   84    80    81    1
   85    80    82    1
   86    80    83    1
   87    83    84    1
   88    85    86    1
   89    85    87    1
   90    85    88    1
   91    88    89    1
   92    88    90    1
   93    90    91    1
   94    88    92    1
   95    92    93    1
   96    92    94    1
   97    94    95    1
   98    66    96    1
   99    92    96    1
  100    96    97    1
  101    96    98    1
  102    98    99    1
  103    85   100    1
  104    98   100    1
  105    98   101    1
  106   101   102    1
  107   101   103    1
  108   101   104    1
  109   104   105    1
  110   106   107    1
  111    12   108    1
  112   106   108    1
  113   106   109    1
  114   109   110    1
  115   109   111    1
  116   111   112    1
  117   109   113    1
  118   113   114    1
  119   113   115    1
  120   115   116    1
  121    87   117    1
  122   113   117    1
  123   117   118    1
  124   117   119    1
  125   119   120    1
  126   106   121    1
  127   119   121    1
  128   119   122    1
  129   122   123    1
  130   122   124    1
  131   122   125    1
  132   125   126    1
  133   127   128    1
  134   127   129    1
  135   127   130    1
  136   130   131    1
  137   130   132    1
  138   130   133    1
  139   133   134    1
  140   133   135    1
  141   133   136    1
  142   136   137    1
  143   127   138    1
  144   136   138    1
  145   138   139    1
  146   138   140    1
  147   136   141    1
  148   141   142    1
@<TRIPOS>SUBSTRUCTURE
       1 MOL1            1 RESIDUE      1      MOL     
       2 MOL1          142 RESIDUE      1      MOL     
@<SCITEGIC>MOL_PROPERTY
VM2 Rank
SciTegic.value.IntegerValue
6

@<SCITEGIC>MOL_PROPERTY
Conf_Id
SciTegic.value.IntegerValue
13076

@<SCITEGIC>MOL_PROPERTY
Probability
SciTegic.value.DoubleValue
0.91

@<SCITEGIC>MOL_PROPERTY
Sum Probability
SciTegic.value.DoubleValue
6.17

@<SCITEGIC>MOL_PROPERTY
Delta G
SciTegic.value.DoubleValue
0.173

@<SCITEGIC>MOL_PROPERTY
G
SciTegic.value.DoubleValue
549.529

@<SCITEGIC>MOL_PROPERTY
E
SciTegic.value.DoubleValue
365.195

@<SCITEGIC>MOL_PROPERTY
-TS
SciTegic.value.DoubleValue
184.335

@<SCITEGIC>MOL_PROPERTY
U+W
SciTegic.value.DoubleValue
240.001

@<SCITEGIC>MOL_PROPERTY
U
SciTegic.value.DoubleValue
273.099

@<SCITEGIC>MOL_PROPERTY
W
SciTegic.value.DoubleValue
-33.098

@<SCITEGIC>MOL_PROPERTY
W(PB)
SciTegic.value.DoubleValue
-39.219

@<SCITEGIC>MOL_PROPERTY
W(SA)
SciTegic.value.DoubleValue
6.121

@<SCITEGIC>MOL_PROPERTY
Valence
SciTegic.value.DoubleValue
157.317

@<SCITEGIC>MOL_PROPERTY
Coulomb
SciTegic.value.DoubleValue
139.215

@<SCITEGIC>MOL_PROPERTY
VdW
SciTegic.value.DoubleValue
-23.433

@<SCITEGIC>MOL_PROPERTY
VdW6
SciTegic.value.DoubleValue
-168.537

@<SCITEGIC>MOL_PROPERTY
VdW12
SciTegic.value.DoubleValue
145.104

@<SCITEGIC>MOL_PROPERTY
Bond
SciTegic.value.DoubleValue
4.295

@<SCITEGIC>MOL_PROPERTY
Angle
SciTegic.value.DoubleValue
12.415

@<SCITEGIC>MOL_PROPERTY
Pdih
SciTegic.value.DoubleValue
140.608

@<SCITEGIC>MOL_PROPERTY
Idih
SciTegic.value.DoubleValue
0.000

@<SCITEGIC>MOL_PROPERTY
Tether
SciTegic.value.DoubleValue
0.000

@<TRIPOS>MOLECULE
CD_guest-4_vm2_single.mol2 : vm2 host+ligand conformer 7
         142         148           2
SMALL
USER_CHARGES
 
@<TRIPOS>ATOM
       1    C1      16.229986   15.107930   21.292420 C.3        1 MOL1         0.2972
       2    H1      15.144605   14.944072   21.303142 H          1 MOL1         0.0751
       3    O1      16.562960   16.498919   21.477881 O.3        1 MOL1        -0.3740
       4    C2      16.924213   14.286281   22.408649 C.3        1 MOL1         0.1003
       5    H2      16.718885   13.226535   22.209186 H          1 MOL1         0.0783
       6    O2      16.407484   14.625894   23.705030 O.3        1 MOL1        -0.5519
       7    H3      16.412566   15.613956   23.779872 H          1 MOL1         0.3769
       8    C3      18.458689   14.488293   22.363686 C.3        1 MOL1         0.1053
       9    H4      18.675151   15.525830   22.643245 H          1 MOL1         0.0783
      10    O3      19.083726   13.595524   23.292023 O.3        1 MOL1        -0.5519
      11    H5      18.577712   13.701074   24.127733 H          1 MOL1         0.3769
      12    C4      19.024914   14.245789   20.942671 C.3        1 MOL1         0.1018
      13    H6      19.060478   13.162553   20.766211 H          1 MOL1         0.0783
      14    C5      18.188654   14.939996   19.831140 C.3        1 MOL1         0.1043
      15    H7      18.371141   16.021679   19.884191 H          1 MOL1         0.0783
      16    O4      16.779000   14.675151   20.030223 O.3        1 MOL1        -0.3740
      17    C6      18.554897   14.471327   18.404954 C.3        1 MOL1         0.0138
      18    H8      19.591822   14.758705   18.186923 H          1 MOL1         0.0794
      19    H9      17.913271   14.996996   17.685227 H          1 MOL1         0.0794
      20    O5      18.396166   13.055878   18.269486 O.3        1 MOL1        -0.5486
      21    H10     17.461612   12.860831   18.504246 H          1 MOL1         0.3769
      22    C7      14.874991   20.253325   21.928989 C.3        1 MOL1         0.2972
      23    H11     14.221167   21.118791   22.097265 H          1 MOL1         0.0751
      24    O6      16.155496   20.648114   21.394890 O.3        1 MOL1        -0.3740
      25    C8      15.091424   19.475920   23.252711 C.3        1 MOL1         0.1003
      26    H12     14.109155   19.105148   23.573457 H          1 MOL1         0.0783
      27    O7      15.629809   20.314832   24.286239 O.3        1 MOL1        -0.5519
      28    H13     15.656789   21.236248   23.930432 H          1 MOL1         0.3769
      29    C9      16.008871   18.254513   23.018356 C.3        1 MOL1         0.1053
      30    H14     17.002972   18.624305   22.739219 H          1 MOL1         0.0783
      31    O8      16.093249   17.494421   24.227067 O.3        1 MOL1        -0.5519
      32    H15     16.214305   18.170341   24.931621 H          1 MOL1         0.3769
      33    C10     15.480125   17.367926   21.864756 C.3        1 MOL1         0.1018
      34    H16     14.613186   16.804174   22.234228 H          1 MOL1         0.0783
      35    C11     15.080107   18.196361   20.609722 C.3        1 MOL1         0.1043
      36    H17     15.999900   18.547058   20.122953 H          1 MOL1         0.0783
      37    O9      14.268246   19.337114   20.992377 O.3        1 MOL1        -0.3740
      38    C12     14.281025   17.380193   19.569306 C.3        1 MOL1         0.0138
      39    H18     14.915497   16.571630   19.182867 H          1 MOL1         0.0794
      40    H19     14.033461   18.033663   18.722105 H          1 MOL1         0.0794
      41    O10     13.087900   16.838885   20.144090 O.3        1 MOL1        -0.5486
      42    H20     12.578768   17.604354   20.492564 H          1 MOL1         0.3769
      43    C13     18.409388   24.053169   20.675708 C.3        1 MOL1         0.2972
      44    H21     18.790208   25.035025   20.367027 H          1 MOL1         0.0751
      45    O11     19.463662   23.184762   21.139731 O.3        1 MOL1        -0.3740
      46    C14     17.385454   24.205505   21.826400 C.3        1 MOL1         0.1003
      47    H22     16.555013   24.815947   21.448439 H          1 MOL1         0.0783
      48    O12     17.976141   24.863933   22.958278 O.3        1 MOL1        -0.5519
      49    H23     18.896990   24.511933   23.058591 H          1 MOL1         0.3769
      50    C15     16.814571   22.826757   22.239169 C.3        1 MOL1         0.1053
      51    H24     17.627117   22.250548   22.700392 H          1 MOL1         0.0783
      52    O13     15.762951   23.028703   23.188652 O.3        1 MOL1        -0.5519
      53    H25     16.097695   23.734763   23.787538 H          1 MOL1         0.3769
      54    C16     16.294912   22.030226   21.010151 C.3        1 MOL1         0.1018
      55    H26     15.337722   22.451669   20.675044 H          1 MOL1         0.0783
      56    C17     17.288904   22.054932   19.817420 C.3        1 MOL1         0.1043
      57    H27     18.149276   21.415346   20.049005 H          1 MOL1         0.0783
      58    O14     17.727744   23.413359   19.577017 O.3        1 MOL1        -0.3740
      59    C18     16.639508   21.537278   18.517351 C.3        1 MOL1         0.0138
      60    H28     15.806159   22.196716   18.240145 H          1 MOL1         0.0794
      61    H29     16.227463   20.534805   18.693365 H          1 MOL1         0.0794
      62    O15     17.610871   21.489123   17.470351 O.3        1 MOL1        -0.5486
      63    H30     17.994502   22.392222   17.415299 H          1 MOL1         0.3769
      64    C19     23.588618   22.768670   21.268601 C.3        1 MOL1         0.2972
      65    H31     24.677628   22.891294   21.204798 H          1 MOL1         0.0751
      66    O16     23.223186   21.393535   21.503903 O.3        1 MOL1        -0.3740
      67    C20     22.986538   23.660904   22.386876 C.3        1 MOL1         0.1003
      68    H32     23.186802   24.704375   22.110826 H          1 MOL1         0.0783
      69    O17     23.586679   23.399503   23.664016 O.3        1 MOL1        -0.5519
      70    H33     23.422807   22.445741   23.875990 H          1 MOL1         0.3769
      71    C21     21.451474   23.474123   22.452715 C.3        1 MOL1         0.1053
      72    H34     21.246807   22.441102   22.761125 H          1 MOL1         0.0783
      73    O18     20.896551   24.384972   23.407094 O.3        1 MOL1        -0.5519
      74    H35     21.492377   24.333109   24.187439 H          1 MOL1         0.3769
      75    C22     20.803720   23.708297   21.065085 C.3        1 MOL1         0.1018
      76    H36     20.813231   24.786897   20.860329 H          1 MOL1         0.0783
      77    C23     21.544079   22.953203   19.925284 C.3        1 MOL1         0.1043
      78    H37     21.328571   21.880641   20.021754 H          1 MOL1         0.0783
      79    O19     22.973875   23.176312   20.027576 O.3        1 MOL1        -0.3740
      80    C24     21.104390   23.396197   18.512168 C.3        1 MOL1         0.0138
      81    H38     20.043813   23.152105   18.373429 H          1 MOL1         0.0794
      82    H39     21.671199   22.819353   17.769234 H          1 MOL1         0.0794
      83    O20     21.317882   24.797872   18.320155 O.3        1 MOL1        -0.5486
      84    H40     22.273203   24.955447   18.490183 H          1 MOL1         0.3769
      85    C25     24.612134   17.653284   22.506294 C.3        1 MOL1         0.2972
      86    H41     25.161874   16.767118   22.846204 H          1 MOL1         0.0751
      87    O21     23.418989   17.292797   21.777676 O.3        1 MOL1        -0.3740
      88    C26     24.218015   18.528288   23.721879 C.3        1 MOL1         0.1003
      89    H42     25.150874   18.858578   24.196888 H          1 MOL1         0.0783
      90    O22     23.448681   17.787176   24.680207 O.3        1 MOL1        -0.5519
      91    H43     22.638872   17.451648   24.219436 H          1 MOL1         0.3769
      92    C27     23.446098   19.787020   23.268466 C.3        1 MOL1         0.1053
      93    H44     22.480785   19.460410   22.864532 H          1 MOL1         0.0783
      94    O23     23.237096   20.637095   24.399908 O.3        1 MOL1        -0.5519
      95    H45     22.946069   20.033195   25.118553 H          1 MOL1         0.3769
      96    C28     24.201173   20.559068   22.156916 C.3        1 MOL1         0.1018
      97    H46     25.004101   21.148524   22.619470 H          1 MOL1         0.0783
      98    C29     24.787415   19.623609   21.061428 C.3        1 MOL1         0.1043
      99    H47     23.952536   19.288121   20.437150 H          1 MOL1         0.0783
     100    O24     25.440726   18.470912   21.652028 O.3        1 MOL1        -0.3740
     101    C30     25.807241   20.323669   20.136512 C.3        1 MOL1         0.0138
     102    H48     25.298284   21.123434   19.582301 H          1 MOL1         0.0794
     103    H49     26.171868   19.596075   19.398836 H          1 MOL1         0.0794
     104    O25     26.900037   20.861640   20.886527 O.3        1 MOL1        -0.5486
     105    H50     27.296976   20.106265   21.374958 H          1 MOL1         0.3769
     106    C31     21.381152   14.057981   20.307677 C.3        1 MOL1         0.2972
     107    H51     20.987177   13.163513   19.808007 H          1 MOL1         0.0751
     108    O26     20.335575   14.838944   20.917843 O.3        1 MOL1        -0.3740
     109    C32     22.402308   13.675046   21.403125 C.3        1 MOL1         0.1003
     110    H52     23.232124   13.153384   20.908891 H          1 MOL1         0.0783
     111    O27     21.806100   12.800659   22.375047 O.3        1 MOL1        -0.5519
     112    H53     20.957852   13.222206   22.667564 H          1 MOL1         0.3769
     113    C33     22.974812   14.938146   22.092504 C.3        1 MOL1         0.1053
     114    H54     22.170664   15.373652   22.698338 H          1 MOL1         0.0783
     115    O28     24.056175   14.539107   22.940851 O.3        1 MOL1        -0.5519
     116    H55     23.699235   13.800346   23.481063 H          1 MOL1         0.3769
     117    C34     23.448315   16.026139   21.082304 C.3        1 MOL1         0.1018
     118    H56     24.461256   15.786929   20.732528 H          1 MOL1         0.0783
     119    C35     22.507333   16.179276   19.849101 C.3        1 MOL1         0.1043
     120    H57     21.629841   16.764931   20.151966 H          1 MOL1         0.0783
     121    O29     22.076374   14.887244   19.359626 O.3        1 MOL1        -0.3740
     122    C36     23.166424   16.905526   18.655107 C.3        1 MOL1         0.0138
     123    H58     23.443325   17.921751   18.953224 H          1 MOL1         0.0794
     124    H59     22.426695   16.994563   17.848299 H          1 MOL1         0.0794
     125    O30     24.318798   16.197451   18.189607 O.3        1 MOL1        -0.5486
     126    H60     24.017139   15.280869   18.001515 H          1 MOL1         0.3769
     127    C1      19.647103   19.784069   22.333812 C.3        1 MOL1        -0.1689
     128    H1      18.817460   20.051169   21.670004 H          1 MOL1         0.0830
     129    H2      20.546669   20.291026   21.962352 H          1 MOL1         0.0830
     130    C2      19.348274   20.210519   23.782791 C.3        1 MOL1        -0.1689
     131    H3      19.804655   21.175398   24.038736 H          1 MOL1         0.0830
     132    H4      18.264818   20.306224   23.920924 H          1 MOL1         0.0830
     133    C3      19.871902   19.071022   24.669836 C.3        1 MOL1        -0.1765
     134    H5      19.310271   18.996816   25.609544 H          1 MOL1         0.0830
     135    H6      20.925447   19.247229   24.914312 H          1 MOL1         0.0830
     136    C4      19.733002   17.800348   23.822656 C.3        1 MOL1         0.1214
     137    H7      18.730890   17.376995   23.973027 H          1 MOL1         0.0787
     138    C5      19.869550   18.256314   22.359037 C.3        1 MOL1        -0.1765
     139    H8      20.865274   18.014630   21.971080 H          1 MOL1         0.0830
     140    H9      19.135323   17.740422   21.728210 H          1 MOL1         0.0830
     141    O1      20.743807   16.862028   24.162049 O.3        1 MOL1        -0.5512
     142    H10     20.523922   16.527029   25.054600 H          1 MOL1         0.3776
@<TRIPOS>BOND
    1     1     2    1
    2     1     3    1
    3     1     4    1
    4     4     5    1
    5     4     6    1
    6     6     7    1
    7     4     8    1
    8     8     9    1
    9     8    10    1
   10    10    11    1
   11     8    12    1
   12    12    13    1
   13    12    14    1
   14    14    15    1
   15     1    16    1
   16    14    16    1
   17    14    17    1
   18    17    18    1
   19    17    19    1
   20    17    20    1
   21    20    21    1
   22    22    23    1
   23    22    24    1
   24    22    25    1
   25    25    26    1
   26    25    27    1
   27    27    28    1
   28    25    29    1
   29    29    30    1
   30    29    31    1
   31    31    32    1
   32     3    33    1
   33    29    33    1
   34    33    34    1
   35    33    35    1
   36    35    36    1
   37    22    37    1
   38    35    37    1
   39    35    38    1
   40    38    39    1
   41    38    40    1
   42    38    41    1
   43    41    42    1
   44    43    44    1
   45    43    45    1
   46    43    46    1
   47    46    47    1
   48    46    48    1
   49    48    49    1
   50    46    50    1
   51    50    51    1
   52    50    52    1
   53    52    53    1
   54    24    54    1
   55    50    54    1
   56    54    55    1
   57    54    56    1
   58    56    57    1
   59    43    58    1
   60    56    58    1
   61    56    59    1
   62    59    60    1
   63    59    61    1
   64    59    62    1
   65    62    63    1
   66    64    65    1
   67    64    66    1
   68    64    67    1
   69    67    68    1
   70    67    69    1
   71    69    70    1
   72    67    71    1
   73    71    72    1
   74    71    73    1
   75    73    74    1
   76    45    75    1
   77    71    75    1
   78    75    76    1
   79    75    77    1
   80    77    78    1
   81    64    79    1
   82    77    79    1
   83    77    80    1
   84    80    81    1
   85    80    82    1
   86    80    83    1
   87    83    84    1
   88    85    86    1
   89    85    87    1
   90    85    88    1
   91    88    89    1
   92    88    90    1
   93    90    91    1
   94    88    92    1
   95    92    93    1
   96    92    94    1
   97    94    95    1
   98    66    96    1
   99    92    96    1
  100    96    97    1
  101    96    98    1
  102    98    99    1
  103    85   100    1
  104    98   100    1
  105    98   101    1
  106   101   102    1
  107   101   103    1
  108   101   104    1
  109   104   105    1
  110   106   107    1
  111    12   108    1
  112   106   108    1
  113   106   109    1
  114   109   110    1
  115   109   111    1
  116   111   112    1
  117   109   113    1
  118   113   114    1
  119   113   115    1
  120   115   116    1
  121    87   117    1
  122   113   117    1
  123   117   118    1
  124   117   119    1
  125   119   120    1
  126   106   121    1
  127   119   121    1
  128   119   122    1
  129   122   123    1
  130   122   124    1
  131   122   125    1
  132   125   126    1
  133   127   128    1
  134   127   129    1
  135   127   130    1
  136   130   131    1
  137   130   132    1
  138   130   133    1
  139   133   134    1
  140   133   135    1
  141   133   136    1
  142   136   137    1
  143   127   138    1
  144   136   138    1
  145   138   139    1
  146   138   140    1
  147   136   141    1
  148   141   142    1
@<TRIPOS>SUBSTRUCTURE
       1 MOL1            1 RESIDUE      1      MOL     
       2 MOL1          142 RESIDUE      1      MOL     
@<SCITEGIC>MOL_PROPERTY
VM2 Rank
SciTegic.value.IntegerValue
7

@<SCITEGIC>MOL_PROPERTY
Conf_Id
SciTegic.value.IntegerValue
8528

@<SCITEGIC>MOL_PROPERTY
Probability
SciTegic.value.DoubleValue
0.82

@<SCITEGIC>MOL_PROPERTY
Sum Probability
SciTegic.value.DoubleValue
6.99

@<SCITEGIC>MOL_PROPERTY
Delta G
SciTegic.value.DoubleValue
0.232

@<SCITEGIC>MOL_PROPERTY
G
SciTegic.value.DoubleValue
549.588

@<SCITEGIC>MOL_PROPERTY
E
SciTegic.value.DoubleValue
364.998

@<SCITEGIC>MOL_PROPERTY
-TS
SciTegic.value.DoubleValue
184.590

@<SCITEGIC>MOL_PROPERTY
U+W
SciTegic.value.DoubleValue
239.804

@<SCITEGIC>MOL_PROPERTY
U
SciTegic.value.DoubleValue
273.055

@<SCITEGIC>MOL_PROPERTY
W
SciTegic.value.DoubleValue
-33.250

@<SCITEGIC>MOL_PROPERTY
W(PB)
SciTegic.value.DoubleValue
-39.401

@<SCITEGIC>MOL_PROPERTY
W(SA)
SciTegic.value.DoubleValue
6.151

@<SCITEGIC>MOL_PROPERTY
Valence
SciTegic.value.DoubleValue
157.933

@<SCITEGIC>MOL_PROPERTY
Coulomb
SciTegic.value.DoubleValue
139.264

@<SCITEGIC>MOL_PROPERTY
VdW
SciTegic.value.DoubleValue
-24.142

@<SCITEGIC>MOL_PROPERTY
VdW6
SciTegic.value.DoubleValue
-170.094

@<SCITEGIC>MOL_PROPERTY
VdW12
SciTegic.value.DoubleValue
145.952

@<SCITEGIC>MOL_PROPERTY
Bond
SciTegic.value.DoubleValue
4.400

@<SCITEGIC>MOL_PROPERTY
Angle
SciTegic.value.DoubleValue
12.530

@<SCITEGIC>MOL_PROPERTY
Pdih
SciTegic.value.DoubleValue
141.003

@<SCITEGIC>MOL_PROPERTY
Idih
SciTegic.value.DoubleValue
0.000

@<SCITEGIC>MOL_PROPERTY
Tether
SciTegic.value.DoubleValue
0.000

@<TRIPOS>MOLECULE
CD_guest-4_vm2_single.mol2 : vm2 host+ligand conformer 8
         142         148           2
SMALL
USER_CHARGES
 
@<TRIPOS>ATOM
       1    C1      16.274356   15.032869   21.431440 C.3        1 MOL1         0.2972
       2    H1      15.192721   14.855220   21.480211 H          1 MOL1         0.0751
       3    O1      16.594686   16.434053   21.558111 O.3        1 MOL1        -0.3740
       4    C2      17.008160   14.252767   22.551327 C.3        1 MOL1         0.1003
       5    H2      16.815908   13.185051   22.383641 H          1 MOL1         0.0783
       6    O2      16.515402   14.614794   23.850442 O.3        1 MOL1        -0.5519
       7    H3      16.486089   15.604225   23.895006 H          1 MOL1         0.3769
       8    C3      18.537044   14.476053   22.462883 C.3        1 MOL1         0.1053
       9    H4      18.744596   15.524872   22.703094 H          1 MOL1         0.0783
      10    O3      19.193583   13.622885   23.405982 O.3        1 MOL1        -0.5519
      11    H5      18.701251   13.747460   24.247356 H          1 MOL1         0.3769
      12    C4      19.070760   14.194971   21.035961 C.3        1 MOL1         0.1018
      13    H6      19.117950   13.107225   20.893000 H          1 MOL1         0.0783
      14    C5      18.194841   14.840645   19.925134 C.3        1 MOL1         0.1043
      15    H7      18.363843   15.925864   19.937973 H          1 MOL1         0.0783
      16    O4      16.793670   14.564502   20.169682 O.3        1 MOL1        -0.3740
      17    C6      18.533075   14.331868   18.506017 C.3        1 MOL1         0.0138
      18    H8      19.560668   14.626094   18.255165 H          1 MOL1         0.0794
      19    H9      17.867356   14.826165   17.785855 H          1 MOL1         0.0794
      20    O5      18.391687   12.910804   18.418894 O.3        1 MOL1        -0.5486
      21    H10     17.465564   12.710387   18.680845 H          1 MOL1         0.3769
      22    C7      14.895027   20.203644   21.944972 C.3        1 MOL1         0.2972
      23    H11     14.225838   21.060346   22.097039 H          1 MOL1         0.0751
      24    O6      16.179044   20.613971   21.433278 O.3        1 MOL1        -0.3740
      25    C8      15.097536   19.436465   23.276287 C.3        1 MOL1         0.1003
      26    H12     14.112052   19.066790   23.588241 H          1 MOL1         0.0783
      27    O7      15.622190   20.284844   24.309256 O.3        1 MOL1        -0.5519
      28    H13     15.654072   21.202976   23.945198 H          1 MOL1         0.3769
      29    C9      16.019575   18.214488   23.062810 C.3        1 MOL1         0.1053
      30    H14     17.017808   18.584357   22.798491 H          1 MOL1         0.0783
      31    O8      16.084395   17.463349   24.277711 O.3        1 MOL1        -0.5519
      32    H15     16.193830   18.144348   24.979420 H          1 MOL1         0.3769
      33    C10     15.512179   17.321525   21.903038 C.3        1 MOL1         0.1018
      34    H16     14.623425   16.774828   22.245410 H          1 MOL1         0.0783
      35    C11     15.162445   18.149188   20.634013 C.3        1 MOL1         0.1043
      36    H17     16.096552   18.503718   20.177699 H          1 MOL1         0.0783
      37    O9      14.321075   19.274165   21.001385 O.3        1 MOL1        -0.3740
      38    C12     14.394069   17.324320   19.580685 C.3        1 MOL1         0.0138
      39    H18     13.449314   16.970418   20.014589 H          1 MOL1         0.0794
      40    H19     14.987882   16.443768   19.302708 H          1 MOL1         0.0794
      41    O10     14.145575   18.124960   18.423548 O.3        1 MOL1        -0.5486
      42    H20     13.730623   18.953694   18.752522 H          1 MOL1         0.3769
      43    C13     18.389404   24.034516   20.682024 C.3        1 MOL1         0.2972
      44    H21     18.764559   25.016659   20.367380 H          1 MOL1         0.0751
      45    O11     19.447510   23.175640   21.154222 O.3        1 MOL1        -0.3740
      46    C14     17.363781   24.186955   21.831020 C.3        1 MOL1         0.1003
      47    H22     16.527586   24.786663   21.448615 H          1 MOL1         0.0783
      48    O12     17.949292   24.858852   22.957729 O.3        1 MOL1        -0.5519
      49    H23     18.872870   24.514851   23.060233 H          1 MOL1         0.3769
      50    C15     16.807109   22.805550   22.254036 C.3        1 MOL1         0.1053
      51    H24     17.625437   22.242110   22.720835 H          1 MOL1         0.0783
      52    O13     15.752002   23.001358   23.200992 O.3        1 MOL1        -0.5519
      53    H25     16.078666   23.713011   23.797578 H          1 MOL1         0.3769
      54    C16     16.298089   21.992532   21.031609 C.3        1 MOL1         0.1018
      55    H26     15.334694   22.397816   20.694378 H          1 MOL1         0.0783
      56    C17     17.289107   22.019950   19.836320 C.3        1 MOL1         0.1043
      57    H27     18.156945   21.391271   20.069513 H          1 MOL1         0.0783
      58    O14     17.712700   23.382058   19.587691 O.3        1 MOL1        -0.3740
      59    C18     16.644158   21.486826   18.540023 C.3        1 MOL1         0.0138
      60    H28     15.788963   22.121533   18.272011 H          1 MOL1         0.0794
      61    H29     16.264387   20.471138   18.714924 H          1 MOL1         0.0794
      62    O15     17.608251   21.473785   17.485162 O.3        1 MOL1        -0.5486
      63    H30     17.970058   22.386308   17.438843 H          1 MOL1         0.3769
      64    C19     23.568438   22.758294   21.285367 C.3        1 MOL1         0.2972
      65    H31     24.657828   22.877240   21.220751 H          1 MOL1         0.0751
      66    O16     23.197868   21.387689   21.536969 O.3        1 MOL1        -0.3740
      67    C20     22.969100   23.660343   22.396621 C.3        1 MOL1         0.1003
      68    H32     23.174664   24.701418   22.115528 H          1 MOL1         0.0783
      69    O17     23.566078   23.400469   23.675732 O.3        1 MOL1        -0.5519
      70    H33     23.414152   22.443438   23.882492 H          1 MOL1         0.3769
      71    C21     21.433268   23.480049   22.462081 C.3        1 MOL1         0.1053
      72    H34     21.225216   22.450996   22.781239 H          1 MOL1         0.0783
      73    O18     20.879970   24.402142   23.406643 O.3        1 MOL1        -0.5519
      74    H35     21.473680   24.354670   24.188877 H          1 MOL1         0.3769
      75    C22     20.786032   23.700456   21.071926 C.3        1 MOL1         0.1018
      76    H36     20.793871   24.776891   20.856052 H          1 MOL1         0.0783
      77    C23     21.525366   22.933342   19.939534 C.3        1 MOL1         0.1043
      78    H37     21.308536   21.861940   20.046042 H          1 MOL1         0.0783
      79    O19     22.955080   23.155762   20.040498 O.3        1 MOL1        -0.3740
      80    C24     21.086896   23.362916   18.521938 C.3        1 MOL1         0.0138
      81    H38     20.026239   23.118327   18.384907 H          1 MOL1         0.0794
      82    H39     21.653569   22.778158   17.785081 H          1 MOL1         0.0794
      83    O20     21.301844   24.762460   18.316338 O.3        1 MOL1        -0.5486
      84    H40     22.257097   24.920787   18.486005 H          1 MOL1         0.3769
      85    C25     24.640634   17.645710   22.505604 C.3        1 MOL1         0.2972
      86    H41     25.215382   16.772038   22.837460 H          1 MOL1         0.0751
      87    O21     23.437777   17.254844   21.812336 O.3        1 MOL1        -0.3740
      88    C26     24.262811   18.522779   23.725729 C.3        1 MOL1         0.1003
      89    H42     25.202063   18.863705   24.180142 H          1 MOL1         0.0783
      90    O22     23.520400   17.777450   24.701753 O.3        1 MOL1        -0.5519
      91    H43     22.702028   17.438969   24.258486 H          1 MOL1         0.3769
      92    C27     23.468009   19.772485   23.287111 C.3        1 MOL1         0.1053
      93    H44     22.496644   19.435558   22.906568 H          1 MOL1         0.0783
      94    O23     23.278878   20.625339   24.420115 O.3        1 MOL1        -0.5519
      95    H45     23.007726   20.022192   25.147115 H          1 MOL1         0.3769
      96    C28     24.190842   20.546823   22.157142 C.3        1 MOL1         0.1018
      97    H46     25.010113   21.130961   22.597290 H          1 MOL1         0.0783
      98    C29     24.737561   19.610820   21.043292 C.3        1 MOL1         0.1043
      99    H47     23.877981   19.266694   20.456562 H          1 MOL1         0.0783
     100    O24     25.426112   18.467830   21.614762 O.3        1 MOL1        -0.3740
     101    C30     25.713181   20.314722   20.074263 C.3        1 MOL1         0.0138
     102    H48     25.175452   21.107387   19.537196 H          1 MOL1         0.0794
     103    H49     26.054479   19.587228   19.325679 H          1 MOL1         0.0794
     104    O25     26.830635   20.865708   20.776965 O.3        1 MOL1        -0.5486
     105    H50     27.252443   20.116968   21.254616 H          1 MOL1         0.3769
     106    C31     21.417954   14.008540   20.365798 C.3        1 MOL1         0.2972
     107    H51     21.022825   13.110922   19.872705 H          1 MOL1         0.0751
     108    O26     20.370984   14.806222   20.952260 O.3        1 MOL1        -0.3740
     109    C32     22.431339   13.634733   21.472087 C.3        1 MOL1         0.1003
     110    H52     23.267174   13.114887   20.986138 H          1 MOL1         0.0783
     111    O27     21.837490   12.761187   22.445322 O.3        1 MOL1        -0.5519
     112    H53     20.999085   13.191347   22.753486 H          1 MOL1         0.3769
     113    C33     22.992608   14.906354   22.154053 C.3        1 MOL1         0.1053
     114    H54     22.181770   15.347459   22.747249 H          1 MOL1         0.0783
     115    O28     24.070019   14.523884   23.014773 O.3        1 MOL1        -0.5519
     116    H55     23.712627   13.792571   23.564654 H          1 MOL1         0.3769
     117    C34     23.474452   15.980062   21.133984 C.3        1 MOL1         0.1018
     118    H56     24.490357   15.735044   20.796197 H          1 MOL1         0.0783
     119    C35     22.555305   16.121222   19.885573 C.3        1 MOL1         0.1043
     120    H57     21.682089   16.731094   20.152863 H          1 MOL1         0.0783
     121    O29     22.129609   14.820116   19.414485 O.3        1 MOL1        -0.3740
     122    C36     23.283323   16.795252   18.703805 C.3        1 MOL1         0.0138
     123    H58     24.093834   16.139370   18.358523 H          1 MOL1         0.0794
     124    H59     23.738975   17.733199   19.037294 H          1 MOL1         0.0794
     125    O30     22.362361   17.052844   17.642453 O.3        1 MOL1        -0.5486
     126    H60     21.913750   16.197601   17.459207 H          1 MOL1         0.3769
     127    C1      19.665440   19.771295   22.358540 C.3        1 MOL1        -0.1689
     128    H1      18.846576   20.035574   21.680491 H          1 MOL1         0.0830
     129    H2      20.571832   20.273256   21.997175 H          1 MOL1         0.0830
     130    C2      19.349189   20.208050   23.800391 C.3        1 MOL1        -0.1689
     131    H3      19.784647   21.184482   24.048604 H          1 MOL1         0.0830
     132    H4      18.263172   20.283075   23.931433 H          1 MOL1         0.0830
     133    C3      19.891154   19.087831   24.700541 C.3        1 MOL1        -0.1765
     134    H5      19.333284   19.017908   25.642809 H          1 MOL1         0.0830
     135    H6      20.943038   19.281867   24.939253 H          1 MOL1         0.0830
     136    C4      19.767357   17.804692   23.869576 C.3        1 MOL1         0.1214
     137    H7      18.772934   17.367397   24.033071 H          1 MOL1         0.0787
     138    C5      19.885340   18.243469   22.398433 C.3        1 MOL1        -0.1765
     139    H8      20.873459   17.992905   21.995734 H          1 MOL1         0.0830
     140    H9      19.139164   17.723765   21.784961 H          1 MOL1         0.0830
     141    O1      20.795960   16.887350   24.213798 O.3        1 MOL1        -0.5512
     142    H10     20.586688   16.559207   25.111405 H          1 MOL1         0.3776
@<TRIPOS>BOND
    1     1     2    1
    2     1     3    1
    3     1     4    1
    4     4     5    1
    5     4     6    1
    6     6     7    1
    7     4     8    1
    8     8     9    1
    9     8    10    1
   10    10    11    1
   11     8    12    1
   12    12    13    1
   13    12    14    1
   14    14    15    1
   15     1    16    1
   16    14    16    1
   17    14    17    1
   18    17    18    1
   19    17    19    1
   20    17    20    1
   21    20    21    1
   22    22    23    1
   23    22    24    1
   24    22    25    1
   25    25    26    1
   26    25    27    1
   27    27    28    1
   28    25    29    1
   29    29    30    1
   30    29    31    1
   31    31    32    1
   32     3    33    1
   33    29    33    1
   34    33    34    1
   35    33    35    1
   36    35    36    1
   37    22    37    1
   38    35    37    1
   39    35    38    1
   40    38    39    1
   41    38    40    1
   42    38    41    1
   43    41    42    1
   44    43    44    1
   45    43    45    1
   46    43    46    1
   47    46    47    1
   48    46    48    1
   49    48    49    1
   50    46    50    1
   51    50    51    1
   52    50    52    1
   53    52    53    1
   54    24    54    1
   55    50    54    1
   56    54    55    1
   57    54    56    1
   58    56    57    1
   59    43    58    1
   60    56    58    1
   61    56    59    1
   62    59    60    1
   63    59    61    1
   64    59    62    1
   65    62    63    1
   66    64    65    1
   67    64    66    1
   68    64    67    1
   69    67    68    1
   70    67    69    1
   71    69    70    1
   72    67    71    1
   73    71    72    1
   74    71    73    1
   75    73    74    1
   76    45    75    1
   77    71    75    1
   78    75    76    1
   79    75    77    1
   80    77    78    1
   81    64    79    1
   82    77    79    1
   83    77    80    1
   84    80    81    1
   85    80    82    1
   86    80    83    1
   87    83    84    1
   88    85    86    1
   89    85    87    1
   90    85    88    1
   91    88    89    1
   92    88    90    1
   93    90    91    1
   94    88    92    1
   95    92    93    1
   96    92    94    1
   97    94    95    1
   98    66    96    1
   99    92    96    1
  100    96    97    1
  101    96    98    1
  102    98    99    1
  103    85   100    1
  104    98   100    1
  105    98   101    1
  106   101   102    1
  107   101   103    1
  108   101   104    1
  109   104   105    1
  110   106   107    1
  111    12   108    1
  112   106   108    1
  113   106   109    1
  114   109   110    1
  115   109   111    1
  116   111   112    1
  117   109   113    1
  118   113   114    1
  119   113   115    1
  120   115   116    1
  121    87   117    1
  122   113   117    1
  123   117   118    1
  124   117   119    1
  125   119   120    1
  126   106   121    1
  127   119   121    1
  128   119   122    1
  129   122   123    1
  130   122   124    1
  131   122   125    1
  132   125   126    1
  133   127   128    1
  134   127   129    1
  135   127   130    1
  136   130   131    1
  137   130   132    1
  138   130   133    1
  139   133   134    1
  140   133   135    1
  141   133   136    1
  142   136   137    1
  143   127   138    1
  144   136   138    1
  145   138   139    1
  146   138   140    1
  147   136   141    1
  148   141   142    1
@<TRIPOS>SUBSTRUCTURE
       1 MOL1            1 RESIDUE      1      MOL     
       2 MOL1          142 RESIDUE      1      MOL     
@<SCITEGIC>MOL_PROPERTY
VM2 Rank
SciTegic.value.IntegerValue
8

@<SCITEGIC>MOL_PROPERTY
Conf_Id
SciTegic.value.IntegerValue
26247

@<SCITEGIC>MOL_PROPERTY
Probability
SciTegic.value.DoubleValue
0.75

@<SCITEGIC>MOL_PROPERTY
Sum Probability
SciTegic.value.DoubleValue
7.74

@<SCITEGIC>MOL_PROPERTY
Delta G
SciTegic.value.DoubleValue
0.285

@<SCITEGIC>MOL_PROPERTY
G
SciTegic.value.DoubleValue
549.641

@<SCITEGIC>MOL_PROPERTY
E
SciTegic.value.DoubleValue
365.559

@<SCITEGIC>MOL_PROPERTY
-TS
SciTegic.value.DoubleValue
184.082

@<SCITEGIC>MOL_PROPERTY
U+W
SciTegic.value.DoubleValue
240.365

@<SCITEGIC>MOL_PROPERTY
U
SciTegic.value.DoubleValue
274.937

@<SCITEGIC>MOL_PROPERTY
W
SciTegic.value.DoubleValue
-34.572

@<SCITEGIC>MOL_PROPERTY
W(PB)
SciTegic.value.DoubleValue
-40.669

@<SCITEGIC>MOL_PROPERTY
W(SA)
SciTegic.value.DoubleValue
6.097

@<SCITEGIC>MOL_PROPERTY
Valence
SciTegic.value.DoubleValue
158.888

@<SCITEGIC>MOL_PROPERTY
Coulomb
SciTegic.value.DoubleValue
140.714

@<SCITEGIC>MOL_PROPERTY
VdW
SciTegic.value.DoubleValue
-24.665

@<SCITEGIC>MOL_PROPERTY
VdW6
SciTegic.value.DoubleValue
-168.986

@<SCITEGIC>MOL_PROPERTY
VdW12
SciTegic.value.DoubleValue
144.321

@<SCITEGIC>MOL_PROPERTY
Bond
SciTegic.value.DoubleValue
4.305

@<SCITEGIC>MOL_PROPERTY
Angle
SciTegic.value.DoubleValue
12.264

@<SCITEGIC>MOL_PROPERTY
Pdih
SciTegic.value.DoubleValue
142.320

@<SCITEGIC>MOL_PROPERTY
Idih
SciTegic.value.DoubleValue
0.000

@<SCITEGIC>MOL_PROPERTY
Tether
SciTegic.value.DoubleValue
0.000

