@<TRIPOS>MOLECULE
CD_guest-s15_vm2_single.mol2 : vm2 host+ligand conformer 1
         155         160           2
SMALL
USER_CHARGES
 
@<TRIPOS>ATOM
       1    C1      16.226164   15.316291   21.719388 C.3        1 MOL1         0.2972
       2    H1      15.158457   15.156565   21.916967 H          1 MOL1         0.0751
       3    O1      16.462157   16.588374   21.082844 O.3        1 MOL1        -0.3740
       4    C2      17.035226   15.248825   23.041424 C.3        1 MOL1         0.1003
       5    H2      16.865117   14.255160   23.475246 H          1 MOL1         0.0783
       6    O2      16.591279   16.249365   23.971338 O.3        1 MOL1        -0.5519
       7    H3      15.684184   16.522601   23.696087 H          1 MOL1         0.3769
       8    C3      18.551798   15.401061   22.772612 C.3        1 MOL1         0.1053
       9    H4      18.727350   16.430614   22.438054 H          1 MOL1         0.0783
      10    O3      19.288377   15.134476   23.974787 O.3        1 MOL1        -0.5519
      11    H5      20.136120   14.711796   23.697778 H          1 MOL1         0.3769
      12    C4      19.050935   14.463835   21.645943 C.3        1 MOL1         0.1018
      13    H6      19.153591   13.448807   22.053113 H          1 MOL1         0.0783
      14    C5      18.104707   14.450752   20.411579 C.3        1 MOL1         0.1043
      15    H7      18.214472   15.406989   19.882755 H          1 MOL1         0.0783
      16    O4      16.730691   14.286632   20.842770 O.3        1 MOL1        -0.3740
      17    C6      18.416452   13.324720   19.400526 C.3        1 MOL1         0.0138
      18    H8      19.404288   13.504728   18.956475 H          1 MOL1         0.0794
      19    H9      17.681521   13.369301   18.585635 H          1 MOL1         0.0794
      20    O5      18.383739   12.039680   20.028031 O.3        1 MOL1        -0.5486
      21    H10     17.487773   11.947878   20.422122 H          1 MOL1         0.3769
      22    C7      14.682644   20.239005   20.487157 C.3        1 MOL1         0.2972
      23    H11     14.078038   21.113721   20.214632 H          1 MOL1         0.0751
      24    O6      16.014607   20.616613   20.891789 O.3        1 MOL1        -0.3740
      25    C8      14.011699   19.419808   21.618356 C.3        1 MOL1         0.1003
      26    H12     13.058561   19.046463   21.221607 H          1 MOL1         0.0783
      27    O7      13.746831   20.220591   22.779783 O.3        1 MOL1        -0.5519
      28    H13     14.622687   20.528018   23.126028 H          1 MOL1         0.3769
      29    C9      14.882526   18.196790   21.993316 C.3        1 MOL1         0.1053
      30    H14     15.797667   18.568947   22.475364 H          1 MOL1         0.0783
      31    O8      14.145378   17.380259   22.910125 O.3        1 MOL1        -0.5519
      32    H15     13.705004   18.015783   23.519248 H          1 MOL1         0.3769
      33    C10     15.299104   17.369644   20.742460 C.3        1 MOL1         0.1018
      34    H16     14.463876   16.728835   20.429770 H          1 MOL1         0.0783
      35    C11     15.728026   18.247315   19.534905 C.3        1 MOL1         0.1043
      36    H17     16.738217   18.631082   19.719264 H          1 MOL1         0.0783
      37    O9      14.802946   19.348645   19.359115 O.3        1 MOL1        -0.3740
      38    C12     15.759701   17.441197   18.220457 C.3        1 MOL1         0.0138
      39    H18     14.741639   17.114033   17.970219 H          1 MOL1         0.0794
      40    H19     16.375119   16.542598   18.362542 H          1 MOL1         0.0794
      41    O10     16.303209   18.242523   17.169882 O.3        1 MOL1        -0.5486
      42    H20     15.793334   19.082987   17.176601 H          1 MOL1         0.3769
      43    C13     18.405529   23.758394   22.052873 C.3        1 MOL1         0.2972
      44    H21     18.833843   24.708559   22.396320 H          1 MOL1         0.0751
      45    O11     19.416349   22.883149   21.511199 O.3        1 MOL1        -0.3740
      46    C14     17.697411   23.035938   23.225857 C.3        1 MOL1         0.1003
      47    H22     16.894896   23.697713   23.576776 H          1 MOL1         0.0783
      48    O12     18.606810   22.782251   24.308839 O.3        1 MOL1        -0.5519
      49    H23     19.399005   23.352863   24.160716 H          1 MOL1         0.3769
      50    C15     17.057778   21.712231   22.747128 C.3        1 MOL1         0.1053
      51    H24     17.867147   21.024802   22.478097 H          1 MOL1         0.0783
      52    O13     16.290808   21.151184   23.816420 O.3        1 MOL1        -0.5519
      53    H25     16.865245   21.253374   24.607081 H          1 MOL1         0.3769
      54    C16     16.173689   21.915921   21.490572 C.3        1 MOL1         0.1018
      55    H26     15.213397   22.350458   21.798620 H          1 MOL1         0.0783
      56    C17     16.849106   22.815524   20.416578 C.3        1 MOL1         0.1043
      57    H27     17.646543   22.233327   19.936847 H          1 MOL1         0.0783
      58    O14     17.417306   23.998809   21.029588 O.3        1 MOL1        -0.3740
      59    C18     15.880401   23.277882   19.305483 C.3        1 MOL1         0.0138
      60    H28     15.532746   22.399707   18.745438 H          1 MOL1         0.0794
      61    H29     16.429759   23.916909   18.601209 H          1 MOL1         0.0794
      62    O15     14.765077   23.986772   19.852928 O.3        1 MOL1        -0.5486
      63    H30     15.139601   24.742580   20.357941 H          1 MOL1         0.3769
      64    C19     23.568599   22.773813   21.174436 C.3        1 MOL1         0.2972
      65    H31     24.621271   22.994334   20.955481 H          1 MOL1         0.0751
      66    O16     23.378872   21.398276   21.556363 O.3        1 MOL1        -0.3740
      67    C20     23.040211   23.670501   22.325891 C.3        1 MOL1         0.1003
      68    H32     23.138886   24.715176   22.002496 H          1 MOL1         0.0783
      69    O17     23.792278   23.470813   23.535863 O.3        1 MOL1        -0.5519
      70    H33     24.680230   23.864855   23.400166 H          1 MOL1         0.3769
      71    C21     21.539679   23.391571   22.588551 C.3        1 MOL1         0.1053
      72    H34     21.454695   22.371020   22.983028 H          1 MOL1         0.0783
      73    O18     21.058486   24.323557   23.563092 O.3        1 MOL1        -0.5519
      74    H35     21.765976   24.354765   24.246622 H          1 MOL1         0.3769
      75    C22     20.709060   23.475117   21.276963 C.3        1 MOL1         0.1018
      76    H36     20.616242   24.522933   20.961396 H          1 MOL1         0.0783
      77    C23     21.359796   22.665505   20.125145 C.3        1 MOL1         0.1043
      78    H37     21.259996   21.594473   20.340829 H          1 MOL1         0.0783
      79    O19     22.756357   23.032520   20.010629 O.3        1 MOL1        -0.3740
      80    C24     20.691884   22.948000   18.763939 C.3        1 MOL1         0.0138
      81    H38     20.841213   24.002924   18.497665 H          1 MOL1         0.0794
      82    H39     19.611496   22.773795   18.846102 H          1 MOL1         0.0794
      83    O20     21.246625   22.092948   17.762893 O.3        1 MOL1        -0.5486
      84    H40     22.219461   22.221993   17.804094 H          1 MOL1         0.3769
      85    C25     25.201098   17.724625   21.784401 C.3        1 MOL1         0.2972
      86    H41     25.872497   16.859004   21.847367 H          1 MOL1         0.0751
      87    O21     23.828327   17.328143   21.582180 O.3        1 MOL1        -0.3740
      88    C26     25.294774   18.564545   23.081545 C.3        1 MOL1         0.1003
      89    H42     26.324504   18.936577   23.161977 H          1 MOL1         0.0783
      90    O22     24.984392   17.777477   24.238977 O.3        1 MOL1        -0.5519
      91    H43     24.897771   18.433202   24.967266 H          1 MOL1         0.3769
      92    C27     24.350276   19.783148   23.005104 C.3        1 MOL1         0.1053
      93    H44     23.321932   19.404927   23.001833 H          1 MOL1         0.0783
      94    O23     24.555564   20.628463   24.143561 O.3        1 MOL1        -0.5519
      95    H45     24.065764   21.468233   23.967585 H          1 MOL1         0.3769
      96    C28     24.565162   20.597133   21.706036 C.3        1 MOL1         0.1018
      97    H46     25.466874   21.212024   21.826740 H          1 MOL1         0.0783
      98    C29     24.690993   19.705346   20.436382 C.3        1 MOL1         0.1043
      99    H47     23.691864   19.329873   20.178416 H          1 MOL1         0.0783
     100    O24     25.578964   18.585743   20.689174 O.3        1 MOL1        -0.3740
     101    C30     25.232674   20.465647   19.205728 C.3        1 MOL1         0.0138
     102    H48     24.518110   21.250186   18.925091 H          1 MOL1         0.0794
     103    H49     25.298891   19.767800   18.360254 H          1 MOL1         0.0794
     104    O25     26.514268   21.040295   19.477264 O.3        1 MOL1        -0.5486
     105    H50     27.098456   20.296213   19.744840 H          1 MOL1         0.3769
     106    C31     21.365137   14.047592   20.948945 C.3        1 MOL1         0.2972
     107    H51     20.952197   13.066236   20.682512 H          1 MOL1         0.0751
     108    O26     20.318475   15.003339   21.217264 O.3        1 MOL1        -0.3740
     109    C32     22.300800   13.936699   22.183072 C.3        1 MOL1         0.1003
     110    H52     23.108132   13.242735   21.915004 H          1 MOL1         0.0783
     111    O27     21.613638   13.430291   23.334271 O.3        1 MOL1        -0.5519
     112    H53     22.271575   13.488318   24.063498 H          1 MOL1         0.3769
     113    C33     22.944336   15.302424   22.519908 C.3        1 MOL1         0.1053
     114    H54     22.151233   15.975523   22.874124 H          1 MOL1         0.0783
     115    O28     23.926575   15.123484   23.547027 O.3        1 MOL1        -0.5519
     116    H55     24.242562   16.026953   23.799161 H          1 MOL1         0.3769
     117    C34     23.599249   15.942036   21.269305 C.3        1 MOL1         0.1018
     118    H56     24.530572   15.411747   21.029411 H          1 MOL1         0.0783
     119    C35     22.670353   15.904715   20.029238 C.3        1 MOL1         0.1043
     120    H57     21.849830   16.615079   20.181949 H          1 MOL1         0.0783
     121    O29     22.154792   14.561603   19.855252 O.3        1 MOL1        -0.3740
     122    C36     23.411557   16.292619   18.733453 C.3        1 MOL1         0.0138
     123    H58     24.180301   15.539367   18.515046 H          1 MOL1         0.0794
     124    H59     23.918829   17.255171   18.877756 H          1 MOL1         0.0794
     125    O30     22.482287   16.391556   17.653097 O.3        1 MOL1        -0.5486
     126    H60     21.979095   15.547454   17.647495 H          1 MOL1         0.3769
     127    C1      19.732780   18.566213   19.388490 C.3        1 MOL1        -0.2426
     128    H1      18.908668   18.759381   18.689584 H          1 MOL1         0.0959
     129    H2      20.640621   19.017064   18.965924 H          1 MOL1         0.0959
     130    H3      19.878080   17.479923   19.438998 H          1 MOL1         0.0959
     131    C2      19.416133   19.148539   20.781865 C.3        1 MOL1        -0.1410
     132    H4      18.524405   18.650673   21.183333 H          1 MOL1         0.0948
     133    H5      19.166084   20.212712   20.678047 H          1 MOL1         0.0948
     134    C3      20.604276   18.986919   21.758718 C.3        1 MOL1        -0.1435
     135    H6      20.865266   17.924750   21.855332 H          1 MOL1         0.0948
     136    H7      21.485662   19.480839   21.331894 H          1 MOL1         0.0948
     137    C4      20.327357   19.578316   23.162657 C.3        1 MOL1        -0.1435
     138    H8      19.986383   20.616381   23.073230 H          1 MOL1         0.0948
     139    H9      21.265831   19.612527   23.729438 H          1 MOL1         0.0948
     140    C5      19.302587   18.746324   23.962656 C.3        1 MOL1        -0.1435
     141    H10     18.329405   18.741247   23.453937 H          1 MOL1         0.0948
     142    H11     19.660244   17.712648   23.996291 H          1 MOL1         0.0948
     143    C6      19.121597   19.252398   25.409695 C.3        1 MOL1        -0.1500
     144    H12     18.854439   20.316248   25.390721 H          1 MOL1         0.0948
     145    H13     20.075925   19.177259   25.947257 H          1 MOL1         0.0948
     146    C7      18.030222   18.470290   26.172246 C.3        1 MOL1         0.1162
     147    H14     17.081785   18.599121   25.640776 H          1 MOL1         0.0910
     148    C8      17.868115   19.034588   27.592033 C.3        1 MOL1        -0.2491
     149    H15     17.059625   18.518239   28.123764 H          1 MOL1         0.0959
     150    H16     18.791190   18.916137   28.172957 H          1 MOL1         0.0959
     151    H17     17.618053   20.102358   27.559774 H          1 MOL1         0.0959
     152    N1      18.293043   16.987766   26.213109 N.4        1 MOL1        -0.5987
     153    H18     18.215478   16.569001   25.267293 H          1 MOL1         0.3605
     154    H19     17.602956   16.501769   26.790148 H          1 MOL1         0.3605
     155    H20     19.224881   16.767035   26.570641 H          1 MOL1         0.3605
@<TRIPOS>BOND
    1     1     2    1
    2     1     3    1
    3     1     4    1
    4     4     5    1
    5     4     6    1
    6     6     7    1
    7     4     8    1
    8     8     9    1
    9     8    10    1
   10    10    11    1
   11     8    12    1
   12    12    13    1
   13    12    14    1
   14    14    15    1
   15     1    16    1
   16    14    16    1
   17    14    17    1
   18    17    18    1
   19    17    19    1
   20    17    20    1
   21    20    21    1
   22    22    23    1
   23    22    24    1
   24    22    25    1
   25    25    26    1
   26    25    27    1
   27    27    28    1
   28    25    29    1
   29    29    30    1
   30    29    31    1
   31    31    32    1
   32     3    33    1
   33    29    33    1
   34    33    34    1
   35    33    35    1
   36    35    36    1
   37    22    37    1
   38    35    37    1
   39    35    38    1
   40    38    39    1
   41    38    40    1
   42    38    41    1
   43    41    42    1
   44    43    44    1
   45    43    45    1
   46    43    46    1
   47    46    47    1
   48    46    48    1
   49    48    49    1
   50    46    50    1
   51    50    51    1
   52    50    52    1
   53    52    53    1
   54    24    54    1
   55    50    54    1
   56    54    55    1
   57    54    56    1
   58    56    57    1
   59    43    58    1
   60    56    58    1
   61    56    59    1
   62    59    60    1
   63    59    61    1
   64    59    62    1
   65    62    63    1
   66    64    65    1
   67    64    66    1
   68    64    67    1
   69    67    68    1
   70    67    69    1
   71    69    70    1
   72    67    71    1
   73    71    72    1
   74    71    73    1
   75    73    74    1
   76    45    75    1
   77    71    75    1
   78    75    76    1
   79    75    77    1
   80    77    78    1
   81    64    79    1
   82    77    79    1
   83    77    80    1
   84    80    81    1
   85    80    82    1
   86    80    83    1
   87    83    84    1
   88    85    86    1
   89    85    87    1
   90    85    88    1
   91    88    89    1
   92    88    90    1
   93    90    91    1
   94    88    92    1
   95    92    93    1
   96    92    94    1
   97    94    95    1
   98    66    96    1
   99    92    96    1
  100    96    97    1
  101    96    98    1
  102    98    99    1
  103    85   100    1
  104    98   100    1
  105    98   101    1
  106   101   102    1
  107   101   103    1
  108   101   104    1
  109   104   105    1
  110   106   107    1
  111    12   108    1
  112   106   108    1
  113   106   109    1
  114   109   110    1
  115   109   111    1
  116   111   112    1
  117   109   113    1
  118   113   114    1
  119   113   115    1
  120   115   116    1
  121    87   117    1
  122   113   117    1
  123   117   118    1
  124   117   119    1
  125   119   120    1
  126   106   121    1
  127   119   121    1
  128   119   122    1
  129   122   123    1
  130   122   124    1
  131   122   125    1
  132   125   126    1
  133   127   128    1
  134   127   129    1
  135   127   130    1
  136   127   131    1
  137   131   132    1
  138   131   133    1
  139   131   134    1
  140   134   135    1
  141   134   136    1
  142   134   137    1
  143   137   138    1
  144   137   139    1
  145   137   140    1
  146   140   141    1
  147   140   142    1
  148   140   143    1
  149   143   144    1
  150   143   145    1
  151   143   146    1
  152   146   147    1
  153   146   148    1
  154   148   149    1
  155   148   150    1
  156   148   151    1
  157   146   152    1
  158   152   153    1
  159   152   154    1
  160   152   155    1
@<TRIPOS>SUBSTRUCTURE
       1 MOL1            1 RESIDUE      1      MOL     
       2 MOL1          155 RESIDUE      1      MOL     
@<SCITEGIC>MOL_PROPERTY
VM2 Rank
SciTegic.value.IntegerValue
1

@<SCITEGIC>MOL_PROPERTY
Conf_Id
SciTegic.value.IntegerValue
21719

@<SCITEGIC>MOL_PROPERTY
Probability
SciTegic.value.DoubleValue
3.55

@<SCITEGIC>MOL_PROPERTY
Sum Probability
SciTegic.value.DoubleValue
3.55

@<SCITEGIC>MOL_PROPERTY
Delta G
SciTegic.value.DoubleValue
0.000

@<SCITEGIC>MOL_PROPERTY
G
SciTegic.value.DoubleValue
551.298

@<SCITEGIC>MOL_PROPERTY
E
SciTegic.value.DoubleValue
342.585

@<SCITEGIC>MOL_PROPERTY
-TS
SciTegic.value.DoubleValue
208.713

@<SCITEGIC>MOL_PROPERTY
U+W
SciTegic.value.DoubleValue
205.766

@<SCITEGIC>MOL_PROPERTY
U
SciTegic.value.DoubleValue
275.379

@<SCITEGIC>MOL_PROPERTY
W
SciTegic.value.DoubleValue
-69.603

@<SCITEGIC>MOL_PROPERTY
W(PB)
SciTegic.value.DoubleValue
-75.942

@<SCITEGIC>MOL_PROPERTY
W(SA)
SciTegic.value.DoubleValue
6.339

@<SCITEGIC>MOL_PROPERTY
Valence
SciTegic.value.DoubleValue
146.721

@<SCITEGIC>MOL_PROPERTY
Coulomb
SciTegic.value.DoubleValue
155.909

@<SCITEGIC>MOL_PROPERTY
VdW
SciTegic.value.DoubleValue
-27.251

@<SCITEGIC>MOL_PROPERTY
VdW6
SciTegic.value.DoubleValue
-183.847

@<SCITEGIC>MOL_PROPERTY
VdW12
SciTegic.value.DoubleValue
156.596

@<SCITEGIC>MOL_PROPERTY
Bond
SciTegic.value.DoubleValue
4.275

@<SCITEGIC>MOL_PROPERTY
Angle
SciTegic.value.DoubleValue
10.216

@<SCITEGIC>MOL_PROPERTY
Pdih
SciTegic.value.DoubleValue
132.230

@<SCITEGIC>MOL_PROPERTY
Idih
SciTegic.value.DoubleValue
0.000

@<SCITEGIC>MOL_PROPERTY
Tether
SciTegic.value.DoubleValue
0.000

@<TRIPOS>MOLECULE
CD_guest-s15_vm2_single.mol2 : vm2 host+ligand conformer 2
         155         160           2
SMALL
USER_CHARGES
 
@<TRIPOS>ATOM
       1    C1      16.244038   15.342343   21.654834 C.3        1 MOL1         0.2972
       2    H1      15.174449   15.182903   21.842279 H          1 MOL1         0.0751
       3    O1      16.486307   16.617030   21.024806 O.3        1 MOL1        -0.3740
       4    C2      17.040574   15.268957   22.984209 C.3        1 MOL1         0.1003
       5    H2      16.863867   14.274301   23.413092 H          1 MOL1         0.0783
       6    O2      16.590749   16.267355   23.913581 O.3        1 MOL1        -0.5519
       7    H3      15.686622   16.543471   23.631321 H          1 MOL1         0.3769
       8    C3      18.560055   15.417876   22.730456 C.3        1 MOL1         0.1053
       9    H4      18.741561   16.448697   22.403010 H          1 MOL1         0.0783
      10    O3      19.284560   15.142728   23.938082 O.3        1 MOL1        -0.5519
      11    H5      20.134488   14.720867   23.666609 H          1 MOL1         0.3769
      12    C4      19.067897   14.485018   21.604020 C.3        1 MOL1         0.1018
      13    H6      19.166975   13.468348   22.007958 H          1 MOL1         0.0783
      14    C5      18.132097   14.476899   20.361819 C.3        1 MOL1         0.1043
      15    H7      18.246776   15.434602   19.836999 H          1 MOL1         0.0783
      16    O4      16.755106   14.313177   20.781583 O.3        1 MOL1        -0.3740
      17    C6      18.450068   13.353596   19.349660 C.3        1 MOL1         0.0138
      18    H8      19.440809   13.534467   18.912525 H          1 MOL1         0.0794
      19    H9      17.720275   13.400881   18.530259 H          1 MOL1         0.0794
      20    O5      18.412814   12.066716   19.973139 O.3        1 MOL1        -0.5486
      21    H10     17.513827   11.973819   20.360052 H          1 MOL1         0.3769
      22    C7      14.724193   20.273266   20.431739 C.3        1 MOL1         0.2972
      23    H11     14.127126   21.154082   20.162216 H          1 MOL1         0.0751
      24    O6      16.054885   20.640220   20.850246 O.3        1 MOL1        -0.3740
      25    C8      14.037926   19.448964   21.550119 C.3        1 MOL1         0.1003
      26    H12     13.088153   19.080674   21.140742 H          1 MOL1         0.0783
      27    O7      13.763172   20.244138   22.713236 O.3        1 MOL1        -0.5519
      28    H13     14.636377   20.545053   23.071676 H          1 MOL1         0.3769
      29    C9      14.900789   18.221521   21.927862 C.3        1 MOL1         0.1053
      30    H14     15.814596   18.589164   22.415766 H          1 MOL1         0.0783
      31    O8      14.155611   17.407183   22.840352 O.3        1 MOL1        -0.5519
      32    H15     13.711230   18.044327   23.444825 H          1 MOL1         0.3769
      33    C10     15.321685   17.394829   20.678387 C.3        1 MOL1         0.1018
      34    H16     14.488930   16.749972   20.367810 H          1 MOL1         0.0783
      35    C11     15.751024   18.274357   19.470107 C.3        1 MOL1         0.1043
      36    H17     16.763431   18.649922   19.659804 H          1 MOL1         0.0783
      37    O9      14.848483   19.394739   19.295591 O.3        1 MOL1        -0.3740
      38    C12     15.791552   17.486932   18.142027 C.3        1 MOL1         0.0138
      39    H18     16.485730   16.642369   18.247664 H          1 MOL1         0.0794
      40    H19     16.186660   18.142779   17.354811 H          1 MOL1         0.0794
      41    O10     14.489394   17.013940   17.785227 O.3        1 MOL1        -0.5486
      42    H20     13.902852   17.803127   17.789024 H          1 MOL1         0.3769
      43    C13     18.438087   23.771847   22.059178 C.3        1 MOL1         0.2972
      44    H21     18.863855   24.719136   22.413560 H          1 MOL1         0.0751
      45    O11     19.453416   22.898780   21.522671 O.3        1 MOL1        -0.3740
      46    C14     17.716771   23.042253   23.219573 C.3        1 MOL1         0.1003
      47    H22     16.910943   23.702294   23.566143 H          1 MOL1         0.0783
      48    O12     18.614505   22.781168   24.310486 O.3        1 MOL1        -0.5519
      49    H23     19.409037   23.351346   24.173744 H          1 MOL1         0.3769
      50    C15     17.081471   21.722092   22.725165 C.3        1 MOL1         0.1053
      51    H24     17.893134   21.035653   22.460963 H          1 MOL1         0.0783
      52    O13     16.301830   21.154970   23.781994 O.3        1 MOL1        -0.5519
      53    H25     16.867683   21.250423   24.579643 H          1 MOL1         0.3769
      54    C16     16.211513   21.935082   21.460295 C.3        1 MOL1         0.1018
      55    H26     15.249177   22.369842   21.761634 H          1 MOL1         0.0783
      56    C17     16.898822   22.841597   20.399761 C.3        1 MOL1         0.1043
      57    H27     17.700786   22.262134   19.924456 H          1 MOL1         0.0783
      58    O14     17.461268   24.020146   21.026938 O.3        1 MOL1        -0.3740
      59    C18     15.942225   23.312724   19.281824 C.3        1 MOL1         0.0138
      60    H28     15.599823   22.438932   18.711719 H          1 MOL1         0.0794
      61    H29     16.499436   23.956429   18.588056 H          1 MOL1         0.0794
      62    O15     14.821708   24.018545   19.822584 O.3        1 MOL1        -0.5486
      63    H30     15.191405   24.770683   20.336566 H          1 MOL1         0.3769
      64    C19     23.607844   22.787633   21.221975 C.3        1 MOL1         0.2972
      65    H31     24.662682   23.008027   21.013558 H          1 MOL1         0.0751
      66    O16     23.413076   21.410448   21.595051 O.3        1 MOL1        -0.3740
      67    C20     23.070130   23.678705   22.373543 C.3        1 MOL1         0.1003
      68    H32     23.172609   24.725041   22.056775 H          1 MOL1         0.0783
      69    O17     23.811206   23.471536   23.589047 O.3        1 MOL1        -0.5519
      70    H33     24.700638   23.865612   23.463529 H          1 MOL1         0.3769
      71    C21     21.567107   23.399582   22.621335 C.3        1 MOL1         0.1053
      72    H34     21.477918   22.376835   23.009130 H          1 MOL1         0.0783
      73    O18     21.077546   24.326068   23.596952 O.3        1 MOL1        -0.5519
      74    H35     21.778646   24.352664   24.287212 H          1 MOL1         0.3769
      75    C22     20.748389   23.491112   21.302874 C.3        1 MOL1         0.1018
      76    H36     20.659195   24.540632   20.991948 H          1 MOL1         0.0783
      77    C23     21.408412   22.686591   20.152836 C.3        1 MOL1         0.1043
      78    H37     21.305918   21.614688   20.362860 H          1 MOL1         0.0783
      79    O19     22.806191   23.052835   20.052245 O.3        1 MOL1        -0.3740
      80    C24     20.752346   22.975709   18.787240 C.3        1 MOL1         0.0138
      81    H38     20.913156   24.029309   18.522384 H          1 MOL1         0.0794
      82    H39     19.669899   22.811665   18.862041 H          1 MOL1         0.0794
      83    O20     21.305322   22.115585   17.789523 O.3        1 MOL1        -0.5486
      84    H40     22.278797   22.238585   17.833539 H          1 MOL1         0.3769
      85    C25     25.224005   17.732514   21.818318 C.3        1 MOL1         0.2972
      86    H41     25.891701   16.864129   21.882674 H          1 MOL1         0.0751
      87    O21     23.852160   17.342224   21.598380 O.3        1 MOL1        -0.3740
      88    C26     25.306659   18.563555   23.121932 C.3        1 MOL1         0.1003
      89    H42     26.336584   18.931969   23.215469 H          1 MOL1         0.0783
      90    O22     24.982016   17.769855   24.270879 O.3        1 MOL1        -0.5519
      91    H43     24.890076   18.420975   25.002636 H          1 MOL1         0.3769
      92    C27     24.366607   19.785457   23.043772 C.3        1 MOL1         0.1053
      93    H44     23.337196   19.410391   23.027947 H          1 MOL1         0.0783
      94    O23     24.562795   20.623043   24.189529 O.3        1 MOL1        -0.5519
      95    H45     24.077109   21.465269   24.013897 H          1 MOL1         0.3769
      96    C28     24.596804   20.607141   21.752173 C.3        1 MOL1         0.1018
      97    H46     25.497827   21.220217   21.886509 H          1 MOL1         0.0783
      98    C29     24.734884   19.723626   20.478003 C.3        1 MOL1         0.1043
      99    H47     23.737676   19.352909   20.206094 H          1 MOL1         0.0783
     100    O24     25.616632   18.599655   20.733119 O.3        1 MOL1        -0.3740
     101    C30     25.292701   20.490722   19.258818 C.3        1 MOL1         0.0138
     102    H48     24.583507   21.279083   18.975278 H          1 MOL1         0.0794
     103    H49     25.366799   19.798398   18.409468 H          1 MOL1         0.0794
     104    O25     26.572597   21.060047   19.548905 O.3        1 MOL1        -0.5486
     105    H50     27.151800   20.312585   19.817906 H          1 MOL1         0.3769
     106    C31     21.386795   14.071097   20.921873 C.3        1 MOL1         0.2972
     107    H51     20.975001   13.092203   20.644848 H          1 MOL1         0.0751
     108    O26     20.339005   15.026074   21.188267 O.3        1 MOL1        -0.3740
     109    C32     22.312093   13.949891   22.162918 C.3        1 MOL1         0.1003
     110    H52     23.119810   13.255585   21.896906 H          1 MOL1         0.0783
     111    O27     21.614181   13.437814   23.305150 O.3        1 MOL1        -0.5519
     112    H53     22.266385   13.488877   24.040013 H          1 MOL1         0.3769
     113    C33     22.956449   15.311549   22.514404 C.3        1 MOL1         0.1053
     114    H54     22.162306   15.983817   22.867861 H          1 MOL1         0.0783
     115    O28     23.930633   15.122547   23.547361 O.3        1 MOL1        -0.5519
     116    H55     24.245134   16.023465   23.810240 H          1 MOL1         0.3769
     117    C34     23.621877   15.959101   21.273436 C.3        1 MOL1         0.1018
     118    H56     24.553499   15.428412   21.035590 H          1 MOL1         0.0783
     119    C35     22.701086   15.933618   20.027145 C.3        1 MOL1         0.1043
     120    H57     21.880341   16.643385   20.181147 H          1 MOL1         0.0783
     121    O29     22.185542   14.592534   19.838381 O.3        1 MOL1        -0.3740
     122    C36     23.449957   16.332415   18.739144 C.3        1 MOL1         0.0138
     123    H58     24.218803   15.580103   18.517871 H          1 MOL1         0.0794
     124    H59     23.957792   17.292836   18.895130 H          1 MOL1         0.0794
     125    O30     22.526357   16.442730   17.654922 O.3        1 MOL1        -0.5486
     126    H60     22.024885   15.597792   17.636564 H          1 MOL1         0.3769
     127    C1      19.786081   18.609206   19.382266 C.3        1 MOL1        -0.2426
     128    H1      18.976002   18.820617   18.673401 H          1 MOL1         0.0959
     129    H2      20.705898   19.054011   18.979299 H          1 MOL1         0.0959
     130    H3      19.919149   17.520858   19.424278 H          1 MOL1         0.0959
     131    C2      19.454560   19.180717   20.776487 C.3        1 MOL1        -0.1410
     132    H4      18.554082   18.685897   21.162421 H          1 MOL1         0.0948
     133    H5      19.213795   20.247587   20.679257 H          1 MOL1         0.0948
     134    C3      20.629765   19.002712   21.766077 C.3        1 MOL1        -0.1435
     135    H6      20.882347   17.938028   21.857317 H          1 MOL1         0.0948
     136    H7      21.519602   19.493849   21.353689 H          1 MOL1         0.0948
     137    C4      20.341002   19.585087   23.171318 C.3        1 MOL1        -0.1435
     138    H8      20.006264   20.625557   23.086306 H          1 MOL1         0.0948
     139    H9      21.273757   19.610020   23.748057 H          1 MOL1         0.0948
     140    C5      19.303822   18.752305   23.954198 C.3        1 MOL1        -0.1435
     141    H10     18.336179   18.755014   23.434988 H          1 MOL1         0.0948
     142    H11     19.656564   17.716913   23.984270 H          1 MOL1         0.0948
     143    C6      19.109860   19.248756   25.402923 C.3        1 MOL1        -0.1500
     144    H12     18.846325   20.313577   25.388906 H          1 MOL1         0.0948
     145    H13     20.058505   19.166688   25.949455 H          1 MOL1         0.0948
     146    C7      18.008548   18.464776   26.149069 C.3        1 MOL1         0.1162
     147    H14     17.065778   18.600550   25.609307 H          1 MOL1         0.0910
     148    C8      17.834393   19.019254   27.571298 C.3        1 MOL1        -0.2491
     149    H15     18.751346   18.893505   28.160327 H          1 MOL1         0.0959
     150    H16     17.588134   20.088055   27.544410 H          1 MOL1         0.0959
     151    H17     17.019064   18.501733   28.091316 H          1 MOL1         0.0959
     152    N1      18.266271   16.981165   26.181603 N.4        1 MOL1        -0.5987
     153    H18     18.196399   16.569893   25.231899 H          1 MOL1         0.3605
     154    H19     17.569215   16.493156   26.748468 H          1 MOL1         0.3605
     155    H20     19.194010   16.754821   26.546221 H          1 MOL1         0.3605
@<TRIPOS>BOND
    1     1     2    1
    2     1     3    1
    3     1     4    1
    4     4     5    1
    5     4     6    1
    6     6     7    1
    7     4     8    1
    8     8     9    1
    9     8    10    1
   10    10    11    1
   11     8    12    1
   12    12    13    1
   13    12    14    1
   14    14    15    1
   15     1    16    1
   16    14    16    1
   17    14    17    1
   18    17    18    1
   19    17    19    1
   20    17    20    1
   21    20    21    1
   22    22    23    1
   23    22    24    1
   24    22    25    1
   25    25    26    1
   26    25    27    1
   27    27    28    1
   28    25    29    1
   29    29    30    1
   30    29    31    1
   31    31    32    1
   32     3    33    1
   33    29    33    1
   34    33    34    1
   35    33    35    1
   36    35    36    1
   37    22    37    1
   38    35    37    1
   39    35    38    1
   40    38    39    1
   41    38    40    1
   42    38    41    1
   43    41    42    1
   44    43    44    1
   45    43    45    1
   46    43    46    1
   47    46    47    1
   48    46    48    1
   49    48    49    1
   50    46    50    1
   51    50    51    1
   52    50    52    1
   53    52    53    1
   54    24    54    1
   55    50    54    1
   56    54    55    1
   57    54    56    1
   58    56    57    1
   59    43    58    1
   60    56    58    1
   61    56    59    1
   62    59    60    1
   63    59    61    1
   64    59    62    1
   65    62    63    1
   66    64    65    1
   67    64    66    1
   68    64    67    1
   69    67    68    1
   70    67    69    1
   71    69    70    1
   72    67    71    1
   73    71    72    1
   74    71    73    1
   75    73    74    1
   76    45    75    1
   77    71    75    1
   78    75    76    1
   79    75    77    1
   80    77    78    1
   81    64    79    1
   82    77    79    1
   83    77    80    1
   84    80    81    1
   85    80    82    1
   86    80    83    1
   87    83    84    1
   88    85    86    1
   89    85    87    1
   90    85    88    1
   91    88    89    1
   92    88    90    1
   93    90    91    1
   94    88    92    1
   95    92    93    1
   96    92    94    1
   97    94    95    1
   98    66    96    1
   99    92    96    1
  100    96    97    1
  101    96    98    1
  102    98    99    1
  103    85   100    1
  104    98   100    1
  105    98   101    1
  106   101   102    1
  107   101   103    1
  108   101   104    1
  109   104   105    1
  110   106   107    1
  111    12   108    1
  112   106   108    1
  113   106   109    1
  114   109   110    1
  115   109   111    1
  116   111   112    1
  117   109   113    1
  118   113   114    1
  119   113   115    1
  120   115   116    1
  121    87   117    1
  122   113   117    1
  123   117   118    1
  124   117   119    1
  125   119   120    1
  126   106   121    1
  127   119   121    1
  128   119   122    1
  129   122   123    1
  130   122   124    1
  131   122   125    1
  132   125   126    1
  133   127   128    1
  134   127   129    1
  135   127   130    1
  136   127   131    1
  137   131   132    1
  138   131   133    1
  139   131   134    1
  140   134   135    1
  141   134   136    1
  142   134   137    1
  143   137   138    1
  144   137   139    1
  145   137   140    1
  146   140   141    1
  147   140   142    1
  148   140   143    1
  149   143   144    1
  150   143   145    1
  151   143   146    1
  152   146   147    1
  153   146   148    1
  154   148   149    1
  155   148   150    1
  156   148   151    1
  157   146   152    1
  158   152   153    1
  159   152   154    1
  160   152   155    1
@<TRIPOS>SUBSTRUCTURE
       1 MOL1            1 RESIDUE      1      MOL     
       2 MOL1          155 RESIDUE      1      MOL     
@<SCITEGIC>MOL_PROPERTY
VM2 Rank
SciTegic.value.IntegerValue
2

@<SCITEGIC>MOL_PROPERTY
Conf_Id
SciTegic.value.IntegerValue
25904

@<SCITEGIC>MOL_PROPERTY
Probability
SciTegic.value.DoubleValue
2.48

@<SCITEGIC>MOL_PROPERTY
Sum Probability
SciTegic.value.DoubleValue
6.03

@<SCITEGIC>MOL_PROPERTY
Delta G
SciTegic.value.DoubleValue
0.215

@<SCITEGIC>MOL_PROPERTY
G
SciTegic.value.DoubleValue
551.512

@<SCITEGIC>MOL_PROPERTY
E
SciTegic.value.DoubleValue
342.683

@<SCITEGIC>MOL_PROPERTY
-TS
SciTegic.value.DoubleValue
208.829

@<SCITEGIC>MOL_PROPERTY
U+W
SciTegic.value.DoubleValue
205.864

@<SCITEGIC>MOL_PROPERTY
U
SciTegic.value.DoubleValue
275.484

@<SCITEGIC>MOL_PROPERTY
W
SciTegic.value.DoubleValue
-69.620

@<SCITEGIC>MOL_PROPERTY
W(PB)
SciTegic.value.DoubleValue
-75.979

@<SCITEGIC>MOL_PROPERTY
W(SA)
SciTegic.value.DoubleValue
6.360

@<SCITEGIC>MOL_PROPERTY
Valence
SciTegic.value.DoubleValue
146.577

@<SCITEGIC>MOL_PROPERTY
Coulomb
SciTegic.value.DoubleValue
155.822

@<SCITEGIC>MOL_PROPERTY
VdW
SciTegic.value.DoubleValue
-26.915

@<SCITEGIC>MOL_PROPERTY
VdW6
SciTegic.value.DoubleValue
-184.020

@<SCITEGIC>MOL_PROPERTY
VdW12
SciTegic.value.DoubleValue
157.104

@<SCITEGIC>MOL_PROPERTY
Bond
SciTegic.value.DoubleValue
4.307

@<SCITEGIC>MOL_PROPERTY
Angle
SciTegic.value.DoubleValue
10.294

@<SCITEGIC>MOL_PROPERTY
Pdih
SciTegic.value.DoubleValue
131.977

@<SCITEGIC>MOL_PROPERTY
Idih
SciTegic.value.DoubleValue
0.000

@<SCITEGIC>MOL_PROPERTY
Tether
SciTegic.value.DoubleValue
0.000

@<TRIPOS>MOLECULE
CD_guest-s15_vm2_single.mol2 : vm2 host+ligand conformer 3
         155         160           2
SMALL
USER_CHARGES
 
@<TRIPOS>ATOM
       1    C1      16.219832   15.313872   21.715009 C.3        1 MOL1         0.2972
       2    H1      15.150923   15.155831   21.907345 H          1 MOL1         0.0751
       3    O1      16.460993   16.584492   21.077571 O.3        1 MOL1        -0.3740
       4    C2      17.022135   15.247967   23.041180 C.3        1 MOL1         0.1003
       5    H2      16.849491   14.255015   23.475629 H          1 MOL1         0.0783
       6    O2      16.573995   16.250198   23.967347 O.3        1 MOL1        -0.5519
       7    H3      15.668264   16.523111   23.687412 H          1 MOL1         0.3769
       8    C3      18.540032   15.399293   22.779380 C.3        1 MOL1         0.1053
       9    H4      18.717606   16.428567   22.444938 H          1 MOL1         0.0783
      10    O3      19.270989   15.133195   23.985038 O.3        1 MOL1        -0.5519
      11    H5      20.122291   14.715082   23.711774 H          1 MOL1         0.3769
      12    C4      19.044467   14.460934   21.656023 C.3        1 MOL1         0.1018
      13    H6      19.146876   13.446727   22.065312 H          1 MOL1         0.0783
      14    C5      18.103665   14.444551   20.417536 C.3        1 MOL1         0.1043
      15    H7      18.216120   15.399249   19.886472 H          1 MOL1         0.0783
      16    O4      16.727672   14.282026   20.842940 O.3        1 MOL1        -0.3740
      17    C6      18.419640   13.315600   19.411055 C.3        1 MOL1         0.0138
      18    H8      19.409517   13.494061   18.970947 H          1 MOL1         0.0794
      19    H9      17.688406   13.358112   18.592735 H          1 MOL1         0.0794
      20    O5      18.383695   12.032332   20.042002 O.3        1 MOL1        -0.5486
      21    H10     17.485911   11.941885   20.432258 H          1 MOL1         0.3769
      22    C7      14.691464   20.236711   20.469968 C.3        1 MOL1         0.2972
      23    H11     14.091114   21.113059   20.193279 H          1 MOL1         0.0751
      24    O6      16.021030   20.610843   20.885997 O.3        1 MOL1        -0.3740
      25    C8      14.009358   19.417728   21.594601 C.3        1 MOL1         0.1003
      26    H12     13.059645   19.045179   21.188985 H          1 MOL1         0.0783
      27    O7      13.734291   20.218292   22.753748 O.3        1 MOL1        -0.5519
      28    H13     14.607194   20.524539   23.108363 H          1 MOL1         0.3769
      29    C9      14.876149   18.194022   21.976565 C.3        1 MOL1         0.1053
      30    H14     15.788079   18.565444   22.465234 H          1 MOL1         0.0783
      31    O8      14.131844   17.378252   22.888267 O.3        1 MOL1        -0.5519
      32    H15     13.686996   18.014283   23.493596 H          1 MOL1         0.3769
      33    C10     15.301081   17.366499   20.728742 C.3        1 MOL1         0.1018
      34    H16     14.467687   16.726269   20.410033 H          1 MOL1         0.0783
      35    C11     15.739944   18.243582   19.524255 C.3        1 MOL1         0.1043
      36    H17     16.749613   18.625170   19.715685 H          1 MOL1         0.0783
      37    O9      14.818686   19.347056   19.342169 O.3        1 MOL1        -0.3740
      38    C12     15.779039   17.437671   18.209880 C.3        1 MOL1         0.0138
      39    H18     14.762116   17.112288   17.952787 H          1 MOL1         0.0794
      40    H19     16.391963   16.538003   18.355901 H          1 MOL1         0.0794
      41    O10     16.330895   18.238266   17.163103 O.3        1 MOL1        -0.5486
      42    H20     15.822317   19.079527   17.166512 H          1 MOL1         0.3769
      43    C13     18.402740   23.752679   22.076040 C.3        1 MOL1         0.2972
      44    H21     18.824891   24.703272   22.426098 H          1 MOL1         0.0751
      45    O11     19.423527   22.878488   21.551910 O.3        1 MOL1        -0.3740
      46    C14     17.678544   23.029944   23.238902 C.3        1 MOL1         0.1003
      47    H22     16.870571   23.690904   23.578696 H          1 MOL1         0.0783
      48    O12     18.574479   22.778939   24.333145 O.3        1 MOL1        -0.5519
      49    H23     19.372171   23.339163   24.182264 H          1 MOL1         0.3769
      50    C15     17.047301   21.705173   22.752575 C.3        1 MOL1         0.1053
      51    H24     17.860773   21.018854   22.492926 H          1 MOL1         0.0783
      52    O13     16.268654   21.143114   23.812798 O.3        1 MOL1        -0.5519
      53    H25     16.833639   21.245602   24.610225 H          1 MOL1         0.3769
      54    C16     16.178019   21.909826   21.485983 C.3        1 MOL1         0.1018
      55    H26     15.215793   22.348191   21.782395 H          1 MOL1         0.0783
      56    C17     16.869535   22.806086   20.419589 C.3        1 MOL1         0.1043
      57    H27     17.672966   22.221410   19.953328 H          1 MOL1         0.0783
      58    O14     17.430183   23.990710   21.037292 O.3        1 MOL1        -0.3740
      59    C18     15.917299   23.266192   19.293454 C.3        1 MOL1         0.0138
      60    H28     15.576461   22.386707   18.731257 H          1 MOL1         0.0794
      61    H29     16.477344   23.902409   18.595077 H          1 MOL1         0.0794
      62    O15     14.795259   23.978041   19.823034 O.3        1 MOL1        -0.5486
      63    H30     15.163557   24.734983   20.330910 H          1 MOL1         0.3769
      64    C19     23.568169   22.781949   21.177181 C.3        1 MOL1         0.2972
      65    H31     24.619478   23.005459   20.954804 H          1 MOL1         0.0751
      66    O16     23.380349   21.400677   21.541046 O.3        1 MOL1        -0.3740
      67    C20     23.051180   23.667268   22.341301 C.3        1 MOL1         0.1003
      68    H32     23.148391   24.712548   22.019659 H          1 MOL1         0.0783
      69    O17     23.834830   23.458143   23.528008 O.3        1 MOL1        -0.5519
      70    H33     23.784076   24.282840   24.055655 H          1 MOL1         0.3769
      71    C21     21.552464   23.381223   22.618284 C.3        1 MOL1         0.1053
      72    H34     21.473332   22.353556   22.995422 H          1 MOL1         0.0783
      73    O18     21.058794   24.294285   23.607502 O.3        1 MOL1        -0.5519
      74    H35     21.622116   24.167620   24.400301 H          1 MOL1         0.3769
      75    C22     20.711762   23.478677   21.313070 C.3        1 MOL1         0.1018
      76    H36     20.612664   24.530332   21.012420 H          1 MOL1         0.0783
      77    C23     21.353057   22.687371   20.143101 C.3        1 MOL1         0.1043
      78    H37     21.254826   21.612889   20.342220 H          1 MOL1         0.0783
      79    O19     22.748235   23.056089   20.022480 O.3        1 MOL1        -0.3740
      80    C24     20.675085   22.992453   18.791743 C.3        1 MOL1         0.0138
      81    H38     20.825716   24.050832   18.540310 H          1 MOL1         0.0794
      82    H39     19.594960   22.820667   18.879570 H          1 MOL1         0.0794
      83    O20     21.219053   22.151089   17.773361 O.3        1 MOL1        -0.5486
      84    H40     22.192638   22.276523   17.808752 H          1 MOL1         0.3769
      85    C25     25.200726   17.728100   21.765618 C.3        1 MOL1         0.2972
      86    H41     25.872095   16.862132   21.823693 H          1 MOL1         0.0751
      87    O21     23.824947   17.331599   21.585673 O.3        1 MOL1        -0.3740
      88    C26     25.314434   18.573483   23.057286 C.3        1 MOL1         0.1003
      89    H42     26.347214   18.939993   23.122602 H          1 MOL1         0.0783
      90    O22     25.015462   17.792507   24.221933 O.3        1 MOL1        -0.5519
      91    H43     24.943284   18.451554   24.948806 H          1 MOL1         0.3769
      92    C27     24.376555   19.797955   22.989779 C.3        1 MOL1         0.1053
      93    H44     23.345081   19.428231   23.010924 H          1 MOL1         0.0783
      94    O23     24.613496   20.648299   24.118114 O.3        1 MOL1        -0.5519
      95    H45     24.191446   21.519457   23.913883 H          1 MOL1         0.3769
      96    C28     24.569859   20.602242   21.680941 C.3        1 MOL1         0.1018
      97    H46     25.472870   21.219090   21.781681 H          1 MOL1         0.0783
      98    C29     24.674953   19.702313   20.415432 C.3        1 MOL1         0.1043
      99    H47     23.671359   19.327168   20.175058 H          1 MOL1         0.0783
     100    O24     25.564533   18.582615   20.660783 O.3        1 MOL1        -0.3740
     101    C30     25.198275   20.454940   19.172278 C.3        1 MOL1         0.0138
     102    H48     24.485901   21.246330   18.905333 H          1 MOL1         0.0794
     103    H49     25.239935   19.754880   18.327076 H          1 MOL1         0.0794
     104    O25     26.491037   21.016730   19.416101 O.3        1 MOL1        -0.5486
     105    H50     27.070696   20.268022   19.680666 H          1 MOL1         0.3769
     106    C31     21.361293   14.046527   20.968011 C.3        1 MOL1         0.2972
     107    H51     20.950248   13.063049   20.706495 H          1 MOL1         0.0751
     108    O26     20.312954   15.001524   21.231798 O.3        1 MOL1        -0.3740
     109    C32     22.296679   13.943673   22.203075 C.3        1 MOL1         0.1003
     110    H52     23.104880   13.249073   21.939319 H          1 MOL1         0.0783
     111    O27     21.609460   13.443163   23.356822 O.3        1 MOL1        -0.5519
     112    H53     22.266712   13.506821   24.086194 H          1 MOL1         0.3769
     113    C33     22.938489   15.312062   22.532344 C.3        1 MOL1         0.1053
     114    H54     22.144620   15.986416   22.882395 H          1 MOL1         0.0783
     115    O28     23.921065   15.140673   23.560492 O.3        1 MOL1        -0.5519
     116    H55     24.243732   16.045286   23.799831 H          1 MOL1         0.3769
     117    C34     23.593019   15.944658   21.278210 C.3        1 MOL1         0.1018
     118    H56     24.523146   15.411221   21.040675 H          1 MOL1         0.0783
     119    C35     22.663217   15.901481   20.039060 C.3        1 MOL1         0.1043
     120    H57     21.841835   16.611275   20.189492 H          1 MOL1         0.0783
     121    O29     22.149634   14.556780   19.871579 O.3        1 MOL1        -0.3740
     122    C36     23.402499   16.284422   18.740701 C.3        1 MOL1         0.0138
     123    H58     24.172421   15.531540   18.525199 H          1 MOL1         0.0794
     124    H59     23.908076   17.248573   18.879666 H          1 MOL1         0.0794
     125    O30     22.471997   16.376457   17.660796 O.3        1 MOL1        -0.5486
     126    H60     21.970568   15.531291   17.659576 H          1 MOL1         0.3769
     127    C1      19.741052   18.584438   19.390238 C.3        1 MOL1        -0.2426
     128    H1      18.918186   18.782007   18.691095 H          1 MOL1         0.0959
     129    H2      20.649485   19.038418   18.972400 H          1 MOL1         0.0959
     130    H3      19.886566   17.497864   19.433616 H          1 MOL1         0.0959
     131    C2      19.421557   19.157249   20.786913 C.3        1 MOL1        -0.1410
     132    H4      18.530271   18.655141   21.184082 H          1 MOL1         0.0948
     133    H5      19.169677   20.221537   20.689529 H          1 MOL1         0.0948
     134    C3      20.608875   18.991913   21.764124 C.3        1 MOL1        -0.1435
     135    H6      20.870693   17.929575   21.855897 H          1 MOL1         0.0948
     136    H7      21.490069   19.488952   21.340612 H          1 MOL1         0.0948
     137    C4      20.330653   19.576314   23.170597 C.3        1 MOL1        -0.1435
     138    H8      19.988239   20.614281   23.085532 H          1 MOL1         0.0948
     139    H9      21.269406   19.608529   23.737438 H          1 MOL1         0.0948
     140    C5      19.305605   18.740110   23.965933 C.3        1 MOL1        -0.1435
     141    H10     18.334677   18.731834   23.452964 H          1 MOL1         0.0948
     142    H11     19.666718   17.707590   24.000829 H          1 MOL1         0.0948
     143    C6      19.115481   19.245729   25.411942 C.3        1 MOL1        -0.1500
     144    H12     18.848040   20.309447   25.391314 H          1 MOL1         0.0948
     145    H13     20.066302   19.170690   25.955681 H          1 MOL1         0.0948
     146    C7      18.018811   18.463879   26.167094 C.3        1 MOL1         0.1162
     147    H14     17.074446   18.591345   25.628077 H          1 MOL1         0.0910
     148    C8      17.845281   19.030047   27.584787 C.3        1 MOL1        -0.2491
     149    H15     17.033076   18.513825   28.110952 H          1 MOL1         0.0959
     150    H16     18.763913   18.913109   28.173012 H          1 MOL1         0.0959
     151    H17     17.594666   20.097581   27.549104 H          1 MOL1         0.0959
     152    N1      18.282128   16.981647   26.212147 N.4        1 MOL1        -0.5987
     153    H18     18.214924   16.561502   25.266162 H          1 MOL1         0.3605
     154    H19     17.586051   16.495902   26.782173 H          1 MOL1         0.3605
     155    H20     19.210107   16.761832   26.580060 H          1 MOL1         0.3605
@<TRIPOS>BOND
    1     1     2    1
    2     1     3    1
    3     1     4    1
    4     4     5    1
    5     4     6    1
    6     6     7    1
    7     4     8    1
    8     8     9    1
    9     8    10    1
   10    10    11    1
   11     8    12    1
   12    12    13    1
   13    12    14    1
   14    14    15    1
   15     1    16    1
   16    14    16    1
   17    14    17    1
   18    17    18    1
   19    17    19    1
   20    17    20    1
   21    20    21    1
   22    22    23    1
   23    22    24    1
   24    22    25    1
   25    25    26    1
   26    25    27    1
   27    27    28    1
   28    25    29    1
   29    29    30    1
   30    29    31    1
   31    31    32    1
   32     3    33    1
   33    29    33    1
   34    33    34    1
   35    33    35    1
   36    35    36    1
   37    22    37    1
   38    35    37    1
   39    35    38    1
   40    38    39    1
   41    38    40    1
   42    38    41    1
   43    41    42    1
   44    43    44    1
   45    43    45    1
   46    43    46    1
   47    46    47    1
   48    46    48    1
   49    48    49    1
   50    46    50    1
   51    50    51    1
   52    50    52    1
   53    52    53    1
   54    24    54    1
   55    50    54    1
   56    54    55    1
   57    54    56    1
   58    56    57    1
   59    43    58    1
   60    56    58    1
   61    56    59    1
   62    59    60    1
   63    59    61    1
   64    59    62    1
   65    62    63    1
   66    64    65    1
   67    64    66    1
   68    64    67    1
   69    67    68    1
   70    67    69    1
   71    69    70    1
   72    67    71    1
   73    71    72    1
   74    71    73    1
   75    73    74    1
   76    45    75    1
   77    71    75    1
   78    75    76    1
   79    75    77    1
   80    77    78    1
   81    64    79    1
   82    77    79    1
   83    77    80    1
   84    80    81    1
   85    80    82    1
   86    80    83    1
   87    83    84    1
   88    85    86    1
   89    85    87    1
   90    85    88    1
   91    88    89    1
   92    88    90    1
   93    90    91    1
   94    88    92    1
   95    92    93    1
   96    92    94    1
   97    94    95    1
   98    66    96    1
   99    92    96    1
  100    96    97    1
  101    96    98    1
  102    98    99    1
  103    85   100    1
  104    98   100    1
  105    98   101    1
  106   101   102    1
  107   101   103    1
  108   101   104    1
  109   104   105    1
  110   106   107    1
  111    12   108    1
  112   106   108    1
  113   106   109    1
  114   109   110    1
  115   109   111    1
  116   111   112    1
  117   109   113    1
  118   113   114    1
  119   113   115    1
  120   115   116    1
  121    87   117    1
  122   113   117    1
  123   117   118    1
  124   117   119    1
  125   119   120    1
  126   106   121    1
  127   119   121    1
  128   119   122    1
  129   122   123    1
  130   122   124    1
  131   122   125    1
  132   125   126    1
  133   127   128    1
  134   127   129    1
  135   127   130    1
  136   127   131    1
  137   131   132    1
  138   131   133    1
  139   131   134    1
  140   134   135    1
  141   134   136    1
  142   134   137    1
  143   137   138    1
  144   137   139    1
  145   137   140    1
  146   140   141    1
  147   140   142    1
  148   140   143    1
  149   143   144    1
  150   143   145    1
  151   143   146    1
  152   146   147    1
  153   146   148    1
  154   148   149    1
  155   148   150    1
  156   148   151    1
  157   146   152    1
  158   152   153    1
  159   152   154    1
  160   152   155    1
@<TRIPOS>SUBSTRUCTURE
       1 MOL1            1 RESIDUE      1      MOL     
       2 MOL1          155 RESIDUE      1      MOL     
@<SCITEGIC>MOL_PROPERTY
VM2 Rank
SciTegic.value.IntegerValue
3

@<SCITEGIC>MOL_PROPERTY
Conf_Id
SciTegic.value.IntegerValue
22467

@<SCITEGIC>MOL_PROPERTY
Probability
SciTegic.value.DoubleValue
1.95

@<SCITEGIC>MOL_PROPERTY
Sum Probability
SciTegic.value.DoubleValue
7.98

@<SCITEGIC>MOL_PROPERTY
Delta G
SciTegic.value.DoubleValue
0.358

@<SCITEGIC>MOL_PROPERTY
G
SciTegic.value.DoubleValue
551.655

@<SCITEGIC>MOL_PROPERTY
E
SciTegic.value.DoubleValue
343.195

@<SCITEGIC>MOL_PROPERTY
-TS
SciTegic.value.DoubleValue
208.461

@<SCITEGIC>MOL_PROPERTY
U+W
SciTegic.value.DoubleValue
206.376

@<SCITEGIC>MOL_PROPERTY
U
SciTegic.value.DoubleValue
277.969

@<SCITEGIC>MOL_PROPERTY
W
SciTegic.value.DoubleValue
-71.594

@<SCITEGIC>MOL_PROPERTY
W(PB)
SciTegic.value.DoubleValue
-77.935

@<SCITEGIC>MOL_PROPERTY
W(SA)
SciTegic.value.DoubleValue
6.341

@<SCITEGIC>MOL_PROPERTY
Valence
SciTegic.value.DoubleValue
146.840

@<SCITEGIC>MOL_PROPERTY
Coulomb
SciTegic.value.DoubleValue
158.463

@<SCITEGIC>MOL_PROPERTY
VdW
SciTegic.value.DoubleValue
-27.334

@<SCITEGIC>MOL_PROPERTY
VdW6
SciTegic.value.DoubleValue
-183.682

@<SCITEGIC>MOL_PROPERTY
VdW12
SciTegic.value.DoubleValue
156.348

@<SCITEGIC>MOL_PROPERTY
Bond
SciTegic.value.DoubleValue
4.257

@<SCITEGIC>MOL_PROPERTY
Angle
SciTegic.value.DoubleValue
10.029

@<SCITEGIC>MOL_PROPERTY
Pdih
SciTegic.value.DoubleValue
132.554

@<SCITEGIC>MOL_PROPERTY
Idih
SciTegic.value.DoubleValue
0.000

@<SCITEGIC>MOL_PROPERTY
Tether
SciTegic.value.DoubleValue
0.000

@<TRIPOS>MOLECULE
CD_guest-s15_vm2_single.mol2 : vm2 host+ligand conformer 4
         155         160           2
SMALL
USER_CHARGES
 
@<TRIPOS>ATOM
       1    C1      16.199919   15.342992   21.714601 C.3        1 MOL1         0.2972
       2    H1      15.134020   15.184133   21.922318 H          1 MOL1         0.0751
       3    O1      16.431192   16.616329   21.078932 O.3        1 MOL1        -0.3740
       4    C2      17.021944   15.271395   23.028391 C.3        1 MOL1         0.1003
       5    H2      16.853797   14.277213   23.461805 H          1 MOL1         0.0783
       6    O2      16.589164   16.270772   23.964770 O.3        1 MOL1        -0.5519
       7    H3      15.676898   16.540474   23.703640 H          1 MOL1         0.3769
       8    C3      18.536373   15.420663   22.745634 C.3        1 MOL1         0.1053
       9    H4      18.712128   16.450628   22.412538 H          1 MOL1         0.0783
      10    O3      19.281883   15.148442   23.940943 O.3        1 MOL1        -0.5519
      11    H5      20.123560   14.718434   23.656927 H          1 MOL1         0.3769
      12    C4      19.021859   14.484321   21.612099 C.3        1 MOL1         0.1018
      13    H6      19.122363   13.467939   22.016480 H          1 MOL1         0.0783
      14    C5      18.064100   14.477058   20.386767 C.3        1 MOL1         0.1043
      15    H7      18.170967   15.434491   19.859575 H          1 MOL1         0.0783
      16    O4      16.693980   14.314691   20.830497 O.3        1 MOL1        -0.3740
      17    C6      18.364053   13.352794   19.370131 C.3        1 MOL1         0.0138
      18    H8      19.349121   13.530616   18.918935 H          1 MOL1         0.0794
      19    H9      17.622926   13.402106   18.561149 H          1 MOL1         0.0794
      20    O5      18.331796   12.066161   19.994434 O.3        1 MOL1        -0.5486
      21    H10     17.438718   11.976570   20.395553 H          1 MOL1         0.3769
      22    C7      14.646731   20.272017   20.525802 C.3        1 MOL1         0.2972
      23    H11     14.039788   21.148497   20.264373 H          1 MOL1         0.0751
      24    O6      15.981282   20.647094   20.924067 O.3        1 MOL1        -0.3740
      25    C8      13.984390   19.443868   21.655530 C.3        1 MOL1         0.1003
      26    H12     13.028409   19.073327   21.263013 H          1 MOL1         0.0783
      27    O7      13.728094   20.235571   22.825107 O.3        1 MOL1        -0.5519
      28    H13     14.606416   20.540739   23.167100 H          1 MOL1         0.3769
      29    C9      14.858319   18.218300   22.014606 C.3        1 MOL1         0.1053
      30    H14     15.776973   18.587133   22.492512 H          1 MOL1         0.0783
      31    O8      14.128116   17.394957   22.930926 O.3        1 MOL1        -0.5519
      32    H15     13.691502   18.026007   23.547381 H          1 MOL1         0.3769
      33    C10     15.265739   17.400883   20.754242 C.3        1 MOL1         0.1018
      34    H16     14.428091   16.762893   20.442268 H          1 MOL1         0.0783
      35    C11     15.686469   18.288419   19.551144 C.3        1 MOL1         0.1043
      36    H17     16.697421   18.671392   19.732799 H          1 MOL1         0.0783
      37    O9      14.759730   19.390533   19.390018 O.3        1 MOL1        -0.3740
      38    C12     15.711142   17.492981   18.230042 C.3        1 MOL1         0.0138
      39    H18     14.691109   17.171719   17.980164 H          1 MOL1         0.0794
      40    H19     16.323464   16.590880   18.362953 H          1 MOL1         0.0794
      41    O10     16.254980   18.300647   17.184453 O.3        1 MOL1        -0.5486
      42    H20     15.746158   19.141682   17.196865 H          1 MOL1         0.3769
      43    C13     18.381658   23.778652   22.087874 C.3        1 MOL1         0.2972
      44    H21     18.814694   24.725712   22.433898 H          1 MOL1         0.0751
      45    O11     19.385775   22.905148   21.531111 O.3        1 MOL1        -0.3740
      46    C14     17.682833   23.048963   23.261949 C.3        1 MOL1         0.1003
      47    H22     16.883898   23.708967   23.624191 H          1 MOL1         0.0783
      48    O12     18.601259   22.786983   24.335299 O.3        1 MOL1        -0.5519
      49    H23     19.390870   23.360920   24.186498 H          1 MOL1         0.3769
      50    C15     17.038238   21.729051   22.779378 C.3        1 MOL1         0.1053
      51    H24     17.845020   21.042863   22.499414 H          1 MOL1         0.0783
      52    O13     16.279378   21.161074   23.850798 O.3        1 MOL1        -0.5519
      53    H25     16.860419   21.256585   24.637464 H          1 MOL1         0.3769
      54    C16     16.144063   21.941902   21.531395 C.3        1 MOL1         0.1018
      55    H26     15.185933   22.373227   21.850489 H          1 MOL1         0.0783
      56    C17     16.809782   22.849976   20.458448 C.3        1 MOL1         0.1043
      57    H27     17.602275   22.271273   19.966501 H          1 MOL1         0.0783
      58    O14     17.384554   24.027919   21.075451 O.3        1 MOL1        -0.3740
      59    C18     15.830999   23.321827   19.360243 C.3        1 MOL1         0.0138
      60    H28     15.477818   22.448453   18.796175 H          1 MOL1         0.0794
      61    H29     16.374072   23.966479   18.656221 H          1 MOL1         0.0794
      62    O15     14.721081   24.026550   19.923809 O.3        1 MOL1        -0.5486
      63    H30     15.100527   24.778208   20.431341 H          1 MOL1         0.3769
      64    C19     23.535851   22.788500   21.167222 C.3        1 MOL1         0.2972
      65    H31     24.587195   23.009145   20.942110 H          1 MOL1         0.0751
      66    O16     23.347754   21.412078   21.546656 O.3        1 MOL1        -0.3740
      67    C20     23.017116   23.680819   22.326315 C.3        1 MOL1         0.1003
      68    H32     23.117800   24.726897   22.008133 H          1 MOL1         0.0783
      69    O17     23.775856   23.470922   23.530579 O.3        1 MOL1        -0.5519
      70    H33     24.665554   23.859445   23.390672 H          1 MOL1         0.3769
      71    C21     21.517235   23.405820   22.596967 C.3        1 MOL1         0.1053
      72    H34     21.431974   22.384479   22.989217 H          1 MOL1         0.0783
      73    O18     21.045133   24.336248   23.577425 O.3        1 MOL1        -0.5519
      74    H35     21.756819   24.362768   24.256789 H          1 MOL1         0.3769
      75    C22     20.678346   23.494844   21.290774 C.3        1 MOL1         0.1018
      76    H36     20.586127   24.543456   20.977719 H          1 MOL1         0.0783
      77    C23     21.320031   22.685194   20.134084 C.3        1 MOL1         0.1043
      78    H37     21.221305   21.614543   20.351181 H          1 MOL1         0.0783
      79    O19     22.715672   23.051641   20.010055 O.3        1 MOL1        -0.3740
      80    C24     20.643143   22.965201   18.776894 C.3        1 MOL1         0.0138
      81    H38     20.791370   24.019359   18.506985 H          1 MOL1         0.0794
      82    H39     19.563259   22.791822   18.866797 H          1 MOL1         0.0794
      83    O20     21.190775   22.106729   17.774576 O.3        1 MOL1        -0.5486
      84    H40     22.162925   22.243981   17.801569 H          1 MOL1         0.3769
      85    C25     25.173387   17.731208   21.694146 C.3        1 MOL1         0.2972
      86    H41     25.851642   16.869517   21.732155 H          1 MOL1         0.0751
      87    O21     23.798365   17.327455   21.518931 O.3        1 MOL1        -0.3740
      88    C26     25.291527   18.558433   22.998147 C.3        1 MOL1         0.1003
      89    H42     26.321695   18.932706   23.060482 H          1 MOL1         0.0783
      90    O22     25.007974   17.760710   24.155063 O.3        1 MOL1        -0.5519
      91    H43     24.935882   18.409957   24.890734 H          1 MOL1         0.3769
      92    C27     24.342692   19.775388   22.953684 C.3        1 MOL1         0.1053
      93    H44     23.315145   19.394822   22.965054 H          1 MOL1         0.0783
      94    O23     24.566836   20.609808   24.096753 O.3        1 MOL1        -0.5519
      95    H45     24.068699   21.448228   23.939216 H          1 MOL1         0.3769
      96    C28     24.533097   20.604073   21.660554 C.3        1 MOL1         0.1018
      97    H46     25.439804   21.213716   21.769899 H          1 MOL1         0.0783
      98    C29     24.629750   19.725879   20.379341 C.3        1 MOL1         0.1043
      99    H47     23.626023   19.350425   20.140975 H          1 MOL1         0.0783
     100    O24     25.524780   18.606699   20.601461 O.3        1 MOL1        -0.3740
     101    C30     25.144010   20.498035   19.144202 C.3        1 MOL1         0.0138
     102    H48     24.421460   21.282076   18.883820 H          1 MOL1         0.0794
     103    H49     25.196220   19.806904   18.292266 H          1 MOL1         0.0794
     104    O25     26.428800   21.075197   19.394351 O.3        1 MOL1        -0.5486
     105    H50     27.021127   20.330535   19.641740 H          1 MOL1         0.3769
     106    C31     21.327684   14.051288   20.904180 C.3        1 MOL1         0.2972
     107    H51     20.905936   13.071369   20.646281 H          1 MOL1         0.0751
     108    O26     20.288814   15.016377   21.170747 O.3        1 MOL1        -0.3740
     109    C32     22.268220   13.940582   22.134349 C.3        1 MOL1         0.1003
     110    H52     23.074784   13.246845   21.863297 H          1 MOL1         0.0783
     111    O27     21.585963   13.433983   23.288241 O.3        1 MOL1        -0.5519
     112    H53     22.246179   13.496218   24.015210 H          1 MOL1         0.3769
     113    C33     22.912697   15.306429   22.467631 C.3        1 MOL1         0.1053
     114    H54     22.119926   15.983582   22.814521 H          1 MOL1         0.0783
     115    O28     23.888918   15.129245   23.500848 O.3        1 MOL1        -0.5519
     116    H55     24.222622   16.031052   23.735319 H          1 MOL1         0.3769
     117    C34     23.575847   15.936695   21.216924 C.3        1 MOL1         0.1018
     118    H56     24.511530   15.406351   20.995450 H          1 MOL1         0.0783
     119    C35     22.658730   15.883585   19.966357 C.3        1 MOL1         0.1043
     120    H57     21.842845   16.602552   20.104865 H          1 MOL1         0.0783
     121    O29     22.115781   14.549640   19.802702 O.3        1 MOL1        -0.3740
     122    C36     23.399025   16.252202   18.661645 C.3        1 MOL1         0.0138
     123    H58     23.804763   17.268259   18.752561 H          1 MOL1         0.0794
     124    H59     22.675820   16.258694   17.835276 H          1 MOL1         0.0794
     125    O30     24.453314   15.324159   18.390303 O.3        1 MOL1        -0.5486
     126    H60     24.039261   14.432439   18.397497 H          1 MOL1         0.3769
     127    C1      19.690123   18.604944   19.377747 C.3        1 MOL1        -0.2426
     128    H1      18.853454   18.791816   18.692013 H          1 MOL1         0.0959
     129    H2      20.584109   19.076324   18.948668 H          1 MOL1         0.0959
     130    H3      19.851831   17.520581   19.418381 H          1 MOL1         0.0959
     131    C2      19.382778   19.170086   20.779854 C.3        1 MOL1        -0.1410
     132    H4      18.498564   18.661693   21.184920 H          1 MOL1         0.0948
     133    H5      19.124014   20.233509   20.689844 H          1 MOL1         0.0948
     134    C3      20.581718   19.006145   21.742961 C.3        1 MOL1        -0.1435
     135    H6      20.847854   17.944205   21.829989 H          1 MOL1         0.0948
     136    H7      21.456907   19.505997   21.310892 H          1 MOL1         0.0948
     137    C4      20.317236   19.589249   23.152701 C.3        1 MOL1        -0.1435
     138    H8      19.973938   20.627305   23.072104 H          1 MOL1         0.0948
     139    H9      21.261045   19.621575   23.710817 H          1 MOL1         0.0948
     140    C5      19.300207   18.752396   23.957245 C.3        1 MOL1        -0.1435
     141    H10     18.322337   18.750131   23.457551 H          1 MOL1         0.0948
     142    H11     19.658443   17.718730   23.981428 H          1 MOL1         0.0948
     143    C6      19.132290   19.249971   25.408800 C.3        1 MOL1        -0.1500
     144    H12     18.865497   20.314049   25.398573 H          1 MOL1         0.0948
     145    H13     20.091286   19.171069   25.937442 H          1 MOL1         0.0948
     146    C7      18.047160   18.463877   26.176143 C.3        1 MOL1         0.1162
     147    H14     17.093895   18.597959   25.654705 H          1 MOL1         0.0910
     148    C8      17.899509   19.017955   27.601517 C.3        1 MOL1        -0.2491
     149    H15     17.095255   18.498995   28.137113 H          1 MOL1         0.0959
     150    H16     18.827871   18.893741   28.172731 H          1 MOL1         0.0959
     151    H17     17.650955   20.086337   27.579478 H          1 MOL1         0.0959
     152    N1      18.308073   16.980723   26.203359 N.4        1 MOL1        -0.5987
     153    H18     18.222130   16.569806   25.254785 H          1 MOL1         0.3605
     154    H19     17.622194   16.491146   26.782362 H          1 MOL1         0.3605
     155    H20     19.242621   16.755936   26.551150 H          1 MOL1         0.3605
@<TRIPOS>BOND
    1     1     2    1
    2     1     3    1
    3     1     4    1
    4     4     5    1
    5     4     6    1
    6     6     7    1
    7     4     8    1
    8     8     9    1
    9     8    10    1
   10    10    11    1
   11     8    12    1
   12    12    13    1
   13    12    14    1
   14    14    15    1
   15     1    16    1
   16    14    16    1
   17    14    17    1
   18    17    18    1
   19    17    19    1
   20    17    20    1
   21    20    21    1
   22    22    23    1
   23    22    24    1
   24    22    25    1
   25    25    26    1
   26    25    27    1
   27    27    28    1
   28    25    29    1
   29    29    30    1
   30    29    31    1
   31    31    32    1
   32     3    33    1
   33    29    33    1
   34    33    34    1
   35    33    35    1
   36    35    36    1
   37    22    37    1
   38    35    37    1
   39    35    38    1
   40    38    39    1
   41    38    40    1
   42    38    41    1
   43    41    42    1
   44    43    44    1
   45    43    45    1
   46    43    46    1
   47    46    47    1
   48    46    48    1
   49    48    49    1
   50    46    50    1
   51    50    51    1
   52    50    52    1
   53    52    53    1
   54    24    54    1
   55    50    54    1
   56    54    55    1
   57    54    56    1
   58    56    57    1
   59    43    58    1
   60    56    58    1
   61    56    59    1
   62    59    60    1
   63    59    61    1
   64    59    62    1
   65    62    63    1
   66    64    65    1
   67    64    66    1
   68    64    67    1
   69    67    68    1
   70    67    69    1
   71    69    70    1
   72    67    71    1
   73    71    72    1
   74    71    73    1
   75    73    74    1
   76    45    75    1
   77    71    75    1
   78    75    76    1
   79    75    77    1
   80    77    78    1
   81    64    79    1
   82    77    79    1
   83    77    80    1
   84    80    81    1
   85    80    82    1
   86    80    83    1
   87    83    84    1
   88    85    86    1
   89    85    87    1
   90    85    88    1
   91    88    89    1
   92    88    90    1
   93    90    91    1
   94    88    92    1
   95    92    93    1
   96    92    94    1
   97    94    95    1
   98    66    96    1
   99    92    96    1
  100    96    97    1
  101    96    98    1
  102    98    99    1
  103    85   100    1
  104    98   100    1
  105    98   101    1
  106   101   102    1
  107   101   103    1
  108   101   104    1
  109   104   105    1
  110   106   107    1
  111    12   108    1
  112   106   108    1
  113   106   109    1
  114   109   110    1
  115   109   111    1
  116   111   112    1
  117   109   113    1
  118   113   114    1
  119   113   115    1
  120   115   116    1
  121    87   117    1
  122   113   117    1
  123   117   118    1
  124   117   119    1
  125   119   120    1
  126   106   121    1
  127   119   121    1
  128   119   122    1
  129   122   123    1
  130   122   124    1
  131   122   125    1
  132   125   126    1
  133   127   128    1
  134   127   129    1
  135   127   130    1
  136   127   131    1
  137   131   132    1
  138   131   133    1
  139   131   134    1
  140   134   135    1
  141   134   136    1
  142   134   137    1
  143   137   138    1
  144   137   139    1
  145   137   140    1
  146   140   141    1
  147   140   142    1
  148   140   143    1
  149   143   144    1
  150   143   145    1
  151   143   146    1
  152   146   147    1
  153   146   148    1
  154   148   149    1
  155   148   150    1
  156   148   151    1
  157   146   152    1
  158   152   153    1
  159   152   154    1
  160   152   155    1
@<TRIPOS>SUBSTRUCTURE
       1 MOL1            1 RESIDUE      1      MOL     
       2 MOL1          155 RESIDUE      1      MOL     
@<SCITEGIC>MOL_PROPERTY
VM2 Rank
SciTegic.value.IntegerValue
4

@<SCITEGIC>MOL_PROPERTY
Conf_Id
SciTegic.value.IntegerValue
25956

@<SCITEGIC>MOL_PROPERTY
Probability
SciTegic.value.DoubleValue
1.85

@<SCITEGIC>MOL_PROPERTY
Sum Probability
SciTegic.value.DoubleValue
9.84

@<SCITEGIC>MOL_PROPERTY
Delta G
SciTegic.value.DoubleValue
0.388

@<SCITEGIC>MOL_PROPERTY
G
SciTegic.value.DoubleValue
551.685

@<SCITEGIC>MOL_PROPERTY
E
SciTegic.value.DoubleValue
342.866

@<SCITEGIC>MOL_PROPERTY
-TS
SciTegic.value.DoubleValue
208.820

@<SCITEGIC>MOL_PROPERTY
U+W
SciTegic.value.DoubleValue
206.047

@<SCITEGIC>MOL_PROPERTY
U
SciTegic.value.DoubleValue
275.586

@<SCITEGIC>MOL_PROPERTY
W
SciTegic.value.DoubleValue
-69.539

@<SCITEGIC>MOL_PROPERTY
W(PB)
SciTegic.value.DoubleValue
-75.929

@<SCITEGIC>MOL_PROPERTY
W(SA)
SciTegic.value.DoubleValue
6.390

@<SCITEGIC>MOL_PROPERTY
Valence
SciTegic.value.DoubleValue
146.536

@<SCITEGIC>MOL_PROPERTY
Coulomb
SciTegic.value.DoubleValue
155.843

@<SCITEGIC>MOL_PROPERTY
VdW
SciTegic.value.DoubleValue
-26.794

@<SCITEGIC>MOL_PROPERTY
VdW6
SciTegic.value.DoubleValue
-183.913

@<SCITEGIC>MOL_PROPERTY
VdW12
SciTegic.value.DoubleValue
157.119

@<SCITEGIC>MOL_PROPERTY
Bond
SciTegic.value.DoubleValue
4.301

@<SCITEGIC>MOL_PROPERTY
Angle
SciTegic.value.DoubleValue
10.253

@<SCITEGIC>MOL_PROPERTY
Pdih
SciTegic.value.DoubleValue
131.981

@<SCITEGIC>MOL_PROPERTY
Idih
SciTegic.value.DoubleValue
0.000

@<SCITEGIC>MOL_PROPERTY
Tether
SciTegic.value.DoubleValue
0.000

@<TRIPOS>MOLECULE
CD_guest-s15_vm2_single.mol2 : vm2 host+ligand conformer 5
         155         160           2
SMALL
USER_CHARGES
 
@<TRIPOS>ATOM
       1    C1      16.225991   15.318373   21.722940 C.3        1 MOL1         0.2972
       2    H1      15.158199   15.160609   21.921621 H          1 MOL1         0.0751
       3    O1      16.463445   16.588995   21.084047 O.3        1 MOL1        -0.3740
       4    C2      17.035925   15.252115   23.044490 C.3        1 MOL1         0.1003
       5    H2      16.864578   14.259540   23.480312 H          1 MOL1         0.0783
       6    O2      16.594099   16.255130   23.972761 O.3        1 MOL1        -0.5519
       7    H3      15.687163   16.529049   23.697646 H          1 MOL1         0.3769
       8    C3      18.552556   15.401487   22.774298 C.3        1 MOL1         0.1053
       9    H4      18.729532   16.430226   22.437946 H          1 MOL1         0.0783
      10    O3      19.289626   15.135767   23.976372 O.3        1 MOL1        -0.5519
      11    H5      20.135848   14.710002   23.699501 H          1 MOL1         0.3769
      12    C4      19.049336   14.461520   21.648816 C.3        1 MOL1         0.1018
      13    H6      19.150733   13.447018   22.057600 H          1 MOL1         0.0783
      14    C5      18.102152   14.447777   20.415190 C.3        1 MOL1         0.1043
      15    H7      18.212940   15.402960   19.884677 H          1 MOL1         0.0783
      16    O4      16.728261   14.286427   20.847745 O.3        1 MOL1        -0.3740
      17    C6      18.411341   13.319599   19.405745 C.3        1 MOL1         0.0138
      18    H8      19.399020   13.497433   18.960476 H          1 MOL1         0.0794
      19    H9      17.675728   13.363888   18.591453 H          1 MOL1         0.0794
      20    O5      18.377331   12.035656   20.035420 O.3        1 MOL1        -0.5486
      21    H10     17.481614   11.945841   20.430535 H          1 MOL1         0.3769
      22    C7      14.687340   20.240414   20.482522 C.3        1 MOL1         0.2972
      23    H11     14.083449   21.115169   20.208537 H          1 MOL1         0.0751
      24    O6      16.019579   20.617672   20.886691 O.3        1 MOL1        -0.3740
      25    C8      14.015544   19.423463   21.614863 C.3        1 MOL1         0.1003
      26    H12     13.062324   19.050011   21.218412 H          1 MOL1         0.0783
      27    O7      13.750701   20.226240   22.774905 O.3        1 MOL1        -0.5519
      28    H13     14.626651   20.533335   23.121203 H          1 MOL1         0.3769
      29    C9      14.885586   18.200555   21.991970 C.3        1 MOL1         0.1053
      30    H14     15.801100   18.572939   22.473131 H          1 MOL1         0.0783
      31    O8      14.148122   17.386184   22.910447 O.3        1 MOL1        -0.5519
      32    H15     13.708178   18.023115   23.518409 H          1 MOL1         0.3769
      33    C10     15.301255   17.370969   20.742439 C.3        1 MOL1         0.1018
      34    H16     14.465341   16.730559   20.430767 H          1 MOL1         0.0783
      35    C11     15.731109   18.246316   19.533526 C.3        1 MOL1         0.1043
      36    H17     16.741619   18.629471   19.717392 H          1 MOL1         0.0783
      37    O9      14.807056   19.348209   19.355873 O.3        1 MOL1        -0.3740
      38    C12     15.762172   17.438062   18.220374 C.3        1 MOL1         0.0138
      39    H18     14.743846   17.111356   17.970612 H          1 MOL1         0.0794
      40    H19     16.376816   16.539169   18.363934 H          1 MOL1         0.0794
      41    O10     16.306408   18.237237   17.168537 O.3        1 MOL1        -0.5486
      42    H20     15.797169   19.078097   17.173821 H          1 MOL1         0.3769
      43    C13     18.410796   23.760585   22.046137 C.3        1 MOL1         0.2972
      44    H21     18.838555   24.711332   22.388609 H          1 MOL1         0.0751
      45    O11     19.422221   22.884716   21.506671 O.3        1 MOL1        -0.3740
      46    C14     17.701576   23.039388   23.219297 C.3        1 MOL1         0.1003
      47    H22     16.898669   23.701505   23.568674 H          1 MOL1         0.0783
      48    O12     18.609807   22.786790   24.303519 O.3        1 MOL1        -0.5519
      49    H23     19.399859   23.361079   24.158432 H          1 MOL1         0.3769
      50    C15     17.062566   21.715075   22.741396 C.3        1 MOL1         0.1053
      51    H24     17.872249   21.027527   22.473552 H          1 MOL1         0.0783
      52    O13     16.295034   21.154997   23.810784 O.3        1 MOL1        -0.5519
      53    H25     16.869061   21.258016   24.601647 H          1 MOL1         0.3769
      54    C16     16.179331   21.917571   21.484045 C.3        1 MOL1         0.1018
      55    H26     15.219173   22.353208   21.790953 H          1 MOL1         0.0783
      56    C17     16.856065   22.815465   20.409461 C.3        1 MOL1         0.1043
      57    H27     17.654041   22.232583   19.931431 H          1 MOL1         0.0783
      58    O14     17.423597   23.999553   21.021506 O.3        1 MOL1        -0.3740
      59    C18     15.888606   23.276355   19.296667 C.3        1 MOL1         0.0138
      60    H28     15.541392   22.397413   18.737551 H          1 MOL1         0.0794
      61    H29     16.438811   23.914259   18.592037 H          1 MOL1         0.0794
      62    O15     14.772817   23.986229   19.841893 O.3        1 MOL1        -0.5486
      63    H30     15.146940   24.742704   20.346204 H          1 MOL1         0.3769
      64    C19     23.574991   22.767830   21.189971 C.3        1 MOL1         0.2972
      65    H31     24.629336   22.984936   20.975832 H          1 MOL1         0.0751
      66    O16     23.380139   21.395548   21.579835 O.3        1 MOL1        -0.3740
      67    C20     23.043812   23.669819   22.335760 C.3        1 MOL1         0.1003
      68    H32     23.147523   24.713199   22.009809 H          1 MOL1         0.0783
      69    O17     23.789407   23.470482   23.550046 O.3        1 MOL1        -0.5519
      70    H33     24.682529   23.852562   23.414309 H          1 MOL1         0.3769
      71    C21     21.541252   23.395907   22.592320 C.3        1 MOL1         0.1053
      72    H34     21.451957   22.377508   22.991384 H          1 MOL1         0.0783
      73    O18     21.058112   24.333636   23.560382 O.3        1 MOL1        -0.5519
      74    H35     21.762683   24.366096   24.246885 H          1 MOL1         0.3769
      75    C22     20.716586   23.474789   21.276551 C.3        1 MOL1         0.1018
      76    H36     20.626056   24.521396   20.956371 H          1 MOL1         0.0783
      77    C23     21.371311   22.659731   20.130780 C.3        1 MOL1         0.1043
      78    H37     21.268858   21.589729   20.350062 H          1 MOL1         0.0783
      79    O19     22.768945   23.023638   20.021138 O.3        1 MOL1        -0.3740
      80    C24     20.709673   22.938000   18.765632 C.3        1 MOL1         0.0138
      81    H38     20.857368   23.992882   18.498288 H          1 MOL1         0.0794
      82    H39     19.629359   22.760843   18.842701 H          1 MOL1         0.0794
      83    O20     21.271984   22.082924   17.768853 O.3        1 MOL1        -0.5486
      84    H40     22.243584   22.219473   17.811328 H          1 MOL1         0.3769
      85    C25     25.202510   17.716967   21.773241 C.3        1 MOL1         0.2972
      86    H41     25.876961   16.853109   21.826396 H          1 MOL1         0.0751
      87    O21     23.828456   17.316979   21.586349 O.3        1 MOL1        -0.3740
      88    C26     25.307827   18.552988   23.072070 C.3        1 MOL1         0.1003
      89    H42     26.337058   18.928556   23.142303 H          1 MOL1         0.0783
      90    O22     25.011959   17.760955   24.230097 O.3        1 MOL1        -0.5519
      91    H43     24.929380   18.414162   24.961128 H          1 MOL1         0.3769
      92    C27     24.357938   19.767975   23.008906 C.3        1 MOL1         0.1053
      93    H44     23.330821   19.386297   23.008948 H          1 MOL1         0.0783
      94    O23     24.565532   20.609341   24.150159 O.3        1 MOL1        -0.5519
      95    H45     24.072135   21.447777   23.978642 H          1 MOL1         0.3769
      96    C28     24.564337   20.588442   21.713313 C.3        1 MOL1         0.1018
      97    H46     25.470060   21.197597   21.832450 H          1 MOL1         0.0783
      98    C29     24.677520   19.703737   20.437631 C.3        1 MOL1         0.1043
      99    H47     23.676208   19.323755   20.196305 H          1 MOL1         0.0783
     100    O24     25.565189   18.580515   20.675379 O.3        1 MOL1        -0.3740
     101    C30     25.183058   20.472776   19.193745 C.3        1 MOL1         0.0138
     102    H48     24.385760   21.146564   18.853301 H          1 MOL1         0.0794
     103    H49     25.365570   19.751158   18.386189 H          1 MOL1         0.0794
     104    O25     26.371268   21.225842   19.468270 O.3        1 MOL1        -0.5486
     105    H50     26.669428   21.629836   18.624250 H          1 MOL1         0.3769
     106    C31     21.362367   14.040656   20.950261 C.3        1 MOL1         0.2972
     107    H51     20.947728   13.060077   20.683626 H          1 MOL1         0.0751
     108    O26     20.317355   14.998328   21.218232 O.3        1 MOL1        -0.3740
     109    C32     22.297472   13.927968   22.184680 C.3        1 MOL1         0.1003
     110    H52     23.103758   13.232728   21.916774 H          1 MOL1         0.0783
     111    O27     21.609161   13.422645   23.335678 O.3        1 MOL1        -0.5519
     112    H53     22.267011   13.479443   24.065081 H          1 MOL1         0.3769
     113    C33     22.943035   15.292617   22.521788 C.3        1 MOL1         0.1053
     114    H54     22.150886   15.966871   22.875964 H          1 MOL1         0.0783
     115    O28     23.925091   15.112524   23.548916 O.3        1 MOL1        -0.5519
     116    H55     24.248062   16.015060   23.795519 H          1 MOL1         0.3769
     117    C34     23.599097   15.931560   21.271595 C.3        1 MOL1         0.1018
     118    H56     24.530217   15.400546   21.032545 H          1 MOL1         0.0783
     119    C35     22.670817   15.895769   20.031027 C.3        1 MOL1         0.1043
     120    H57     21.851263   16.607316   20.183509 H          1 MOL1         0.0783
     121    O29     22.153295   14.553402   19.856839 O.3        1 MOL1        -0.3740
     122    C36     23.412923   16.282965   18.735544 C.3        1 MOL1         0.0138
     123    H58     24.181527   15.529380   18.517814 H          1 MOL1         0.0794
     124    H59     23.920404   17.245448   18.879786 H          1 MOL1         0.0794
     125    O30     22.484236   16.381854   17.654664 O.3        1 MOL1        -0.5486
     126    H60     21.980420   15.538114   17.649444 H          1 MOL1         0.3769
     127    C1      19.735976   18.560384   19.387122 C.3        1 MOL1        -0.2426
     128    H1      18.912115   18.753227   18.687833 H          1 MOL1         0.0959
     129    H2      20.644350   19.009486   18.963831 H          1 MOL1         0.0959
     130    H3      19.880090   17.474022   19.439553 H          1 MOL1         0.0959
     131    C2      19.419924   19.145493   20.779468 C.3        1 MOL1        -0.1410
     132    H4      18.527494   18.649512   21.181725 H          1 MOL1         0.0948
     133    H5      19.171342   20.209857   20.673911 H          1 MOL1         0.0948
     134    C3      20.607742   18.983817   21.756684 C.3        1 MOL1        -0.1435
     135    H6      20.867295   17.921456   21.855198 H          1 MOL1         0.0948
     136    H7      21.489891   19.475751   21.329275 H          1 MOL1         0.0948
     137    C4      20.331604   19.578235   23.159417 C.3        1 MOL1        -0.1435
     138    H8      19.991618   20.616464   23.067993 H          1 MOL1         0.0948
     139    H9      21.270330   19.612715   23.725800 H          1 MOL1         0.0948
     140    C5      19.306046   18.748726   23.960995 C.3        1 MOL1        -0.1435
     141    H10     18.332605   18.744442   23.452752 H          1 MOL1         0.0948
     142    H11     19.662119   17.714525   23.995712 H          1 MOL1         0.0948
     143    C6      19.126630   19.256965   25.407468 C.3        1 MOL1        -0.1500
     144    H12     18.860584   20.321082   25.387233 H          1 MOL1         0.0948
     145    H13     20.081297   19.181544   25.944390 H          1 MOL1         0.0948
     146    C7      18.035064   18.477048   26.171985 C.3        1 MOL1         0.1162
     147    H14     17.086171   18.606773   25.641549 H          1 MOL1         0.0910
     148    C8      17.875497   19.042818   27.591476 C.3        1 MOL1        -0.2491
     149    H15     17.066859   18.528166   28.124622 H          1 MOL1         0.0959
     150    H16     18.799083   18.923466   28.171406 H          1 MOL1         0.0959
     151    H17     17.627034   20.110942   27.558583 H          1 MOL1         0.0959
     152    N1      18.295827   16.994176   26.213788 N.4        1 MOL1        -0.5987
     153    H18     18.216045   16.574722   25.268463 H          1 MOL1         0.3605
     154    H19     17.606080   16.509680   26.792489 H          1 MOL1         0.3605
     155    H20     19.227988   16.772449   26.569872 H          1 MOL1         0.3605
@<TRIPOS>BOND
    1     1     2    1
    2     1     3    1
    3     1     4    1
    4     4     5    1
    5     4     6    1
    6     6     7    1
    7     4     8    1
    8     8     9    1
    9     8    10    1
   10    10    11    1
   11     8    12    1
   12    12    13    1
   13    12    14    1
   14    14    15    1
   15     1    16    1
   16    14    16    1
   17    14    17    1
   18    17    18    1
   19    17    19    1
   20    17    20    1
   21    20    21    1
   22    22    23    1
   23    22    24    1
   24    22    25    1
   25    25    26    1
   26    25    27    1
   27    27    28    1
   28    25    29    1
   29    29    30    1
   30    29    31    1
   31    31    32    1
   32     3    33    1
   33    29    33    1
   34    33    34    1
   35    33    35    1
   36    35    36    1
   37    22    37    1
   38    35    37    1
   39    35    38    1
   40    38    39    1
   41    38    40    1
   42    38    41    1
   43    41    42    1
   44    43    44    1
   45    43    45    1
   46    43    46    1
   47    46    47    1
   48    46    48    1
   49    48    49    1
   50    46    50    1
   51    50    51    1
   52    50    52    1
   53    52    53    1
   54    24    54    1
   55    50    54    1
   56    54    55    1
   57    54    56    1
   58    56    57    1
   59    43    58    1
   60    56    58    1
   61    56    59    1
   62    59    60    1
   63    59    61    1
   64    59    62    1
   65    62    63    1
   66    64    65    1
   67    64    66    1
   68    64    67    1
   69    67    68    1
   70    67    69    1
   71    69    70    1
   72    67    71    1
   73    71    72    1
   74    71    73    1
   75    73    74    1
   76    45    75    1
   77    71    75    1
   78    75    76    1
   79    75    77    1
   80    77    78    1
   81    64    79    1
   82    77    79    1
   83    77    80    1
   84    80    81    1
   85    80    82    1
   86    80    83    1
   87    83    84    1
   88    85    86    1
   89    85    87    1
   90    85    88    1
   91    88    89    1
   92    88    90    1
   93    90    91    1
   94    88    92    1
   95    92    93    1
   96    92    94    1
   97    94    95    1
   98    66    96    1
   99    92    96    1
  100    96    97    1
  101    96    98    1
  102    98    99    1
  103    85   100    1
  104    98   100    1
  105    98   101    1
  106   101   102    1
  107   101   103    1
  108   101   104    1
  109   104   105    1
  110   106   107    1
  111    12   108    1
  112   106   108    1
  113   106   109    1
  114   109   110    1
  115   109   111    1
  116   111   112    1
  117   109   113    1
  118   113   114    1
  119   113   115    1
  120   115   116    1
  121    87   117    1
  122   113   117    1
  123   117   118    1
  124   117   119    1
  125   119   120    1
  126   106   121    1
  127   119   121    1
  128   119   122    1
  129   122   123    1
  130   122   124    1
  131   122   125    1
  132   125   126    1
  133   127   128    1
  134   127   129    1
  135   127   130    1
  136   127   131    1
  137   131   132    1
  138   131   133    1
  139   131   134    1
  140   134   135    1
  141   134   136    1
  142   134   137    1
  143   137   138    1
  144   137   139    1
  145   137   140    1
  146   140   141    1
  147   140   142    1
  148   140   143    1
  149   143   144    1
  150   143   145    1
  151   143   146    1
  152   146   147    1
  153   146   148    1
  154   148   149    1
  155   148   150    1
  156   148   151    1
  157   146   152    1
  158   152   153    1
  159   152   154    1
  160   152   155    1
@<TRIPOS>SUBSTRUCTURE
       1 MOL1            1 RESIDUE      1      MOL     
       2 MOL1          155 RESIDUE      1      MOL     
@<SCITEGIC>MOL_PROPERTY
VM2 Rank
SciTegic.value.IntegerValue
5

@<SCITEGIC>MOL_PROPERTY
Conf_Id
SciTegic.value.IntegerValue
25269

@<SCITEGIC>MOL_PROPERTY
Probability
SciTegic.value.DoubleValue
1.82

@<SCITEGIC>MOL_PROPERTY
Sum Probability
SciTegic.value.DoubleValue
11.65

@<SCITEGIC>MOL_PROPERTY
Delta G
SciTegic.value.DoubleValue
0.400

@<SCITEGIC>MOL_PROPERTY
G
SciTegic.value.DoubleValue
551.698

@<SCITEGIC>MOL_PROPERTY
E
SciTegic.value.DoubleValue
343.098

@<SCITEGIC>MOL_PROPERTY
-TS
SciTegic.value.DoubleValue
208.599

@<SCITEGIC>MOL_PROPERTY
U+W
SciTegic.value.DoubleValue
206.279

@<SCITEGIC>MOL_PROPERTY
U
SciTegic.value.DoubleValue
276.401

@<SCITEGIC>MOL_PROPERTY
W
SciTegic.value.DoubleValue
-70.121

@<SCITEGIC>MOL_PROPERTY
W(PB)
SciTegic.value.DoubleValue
-76.462

@<SCITEGIC>MOL_PROPERTY
W(SA)
SciTegic.value.DoubleValue
6.340

@<SCITEGIC>MOL_PROPERTY
Valence
SciTegic.value.DoubleValue
146.378

@<SCITEGIC>MOL_PROPERTY
Coulomb
SciTegic.value.DoubleValue
157.291

@<SCITEGIC>MOL_PROPERTY
VdW
SciTegic.value.DoubleValue
-27.268

@<SCITEGIC>MOL_PROPERTY
VdW6
SciTegic.value.DoubleValue
-183.880

@<SCITEGIC>MOL_PROPERTY
VdW12
SciTegic.value.DoubleValue
156.612

@<SCITEGIC>MOL_PROPERTY
Bond
SciTegic.value.DoubleValue
4.289

@<SCITEGIC>MOL_PROPERTY
Angle
SciTegic.value.DoubleValue
10.357

@<SCITEGIC>MOL_PROPERTY
Pdih
SciTegic.value.DoubleValue
131.732

@<SCITEGIC>MOL_PROPERTY
Idih
SciTegic.value.DoubleValue
0.000

@<SCITEGIC>MOL_PROPERTY
Tether
SciTegic.value.DoubleValue
0.000

@<TRIPOS>MOLECULE
CD_guest-s15_vm2_single.mol2 : vm2 host+ligand conformer 6
         155         160           2
SMALL
USER_CHARGES
 
@<TRIPOS>ATOM
       1    C1      16.220127   15.318086   21.719148 C.3        1 MOL1         0.2972
       2    H1      15.151825   15.159995   21.914707 H          1 MOL1         0.0751
       3    O1      16.459502   16.592144   21.087584 O.3        1 MOL1        -0.3740
       4    C2      17.026395   15.243997   23.042300 C.3        1 MOL1         0.1003
       5    H2      16.855287   14.248312   23.471141 H          1 MOL1         0.0783
       6    O2      16.581081   16.241210   23.975461 O.3        1 MOL1        -0.5519
       7    H3      15.676911   16.520111   23.696244 H          1 MOL1         0.3769
       8    C3      18.543010   15.397008   22.775862 C.3        1 MOL1         0.1053
       9    H4      18.718219   16.426397   22.440674 H          1 MOL1         0.0783
      10    O3      19.279319   15.132364   23.978851 O.3        1 MOL1        -0.5519
      11    H5      20.126007   14.707200   23.702229 H          1 MOL1         0.3769
      12    C4      19.043482   14.459490   21.650326 C.3        1 MOL1         0.1018
      13    H6      19.144970   13.444859   22.058795 H          1 MOL1         0.0783
      14    C5      18.099577   14.444910   20.414081 C.3        1 MOL1         0.1043
      15    H7      18.210824   15.403036   19.889321 H          1 MOL1         0.0783
      16    O4      16.722245   14.291210   20.839264 O.3        1 MOL1        -0.3740
      17    C6      18.420608   13.327223   19.392784 C.3        1 MOL1         0.0138
      18    H8      19.354945   13.584703   18.876052 H          1 MOL1         0.0794
      19    H9      17.625558   13.307763   18.635367 H          1 MOL1         0.0794
      20    O5      18.546564   12.042469   20.015314 O.3        1 MOL1        -0.5486
      21    H10     18.658734   11.375682   19.302994 H          1 MOL1         0.3769
      22    C7      14.682710   20.242857   20.486412 C.3        1 MOL1         0.2972
      23    H11     14.078798   21.117679   20.212700 H          1 MOL1         0.0751
      24    O6      16.014641   20.620063   20.891489 O.3        1 MOL1        -0.3740
      25    C8      14.010521   19.425074   21.617936 C.3        1 MOL1         0.1003
      26    H12     13.057451   19.051890   21.220872 H          1 MOL1         0.0783
      27    O7      13.745291   20.227024   22.778474 O.3        1 MOL1        -0.5519
      28    H13     14.621137   20.533638   23.125448 H          1 MOL1         0.3769
      29    C9      14.880417   18.201933   21.994595 C.3        1 MOL1         0.1053
      30    H14     15.795419   18.573905   22.477043 H          1 MOL1         0.0783
      31    O8      14.142303   17.386423   22.911505 O.3        1 MOL1        -0.5519
      32    H15     13.702472   18.022522   23.520404 H          1 MOL1         0.3769
      33    C10     15.297438   17.373623   20.744738 C.3        1 MOL1         0.1018
      34    H16     14.462067   16.733052   20.431914 H          1 MOL1         0.0783
      35    C11     15.727757   18.249780   19.536644 C.3        1 MOL1         0.1043
      36    H17     16.738024   18.633147   19.721229 H          1 MOL1         0.0783
      37    O9      14.803336   19.351427   19.359218 O.3        1 MOL1        -0.3740
      38    C12     15.759829   17.442194   18.223111 C.3        1 MOL1         0.0138
      39    H18     14.741764   17.115211   17.972651 H          1 MOL1         0.0794
      40    H19     16.374740   16.543454   18.366607 H          1 MOL1         0.0794
      41    O10     16.304302   18.242090   17.171942 O.3        1 MOL1        -0.5486
      42    H20     15.794822   19.082802   17.177437 H          1 MOL1         0.3769
      43    C13     18.406949   23.759991   22.053675 C.3        1 MOL1         0.2972
      44    H21     18.836008   24.709723   22.397396 H          1 MOL1         0.0751
      45    O11     19.417075   22.884060   21.511832 O.3        1 MOL1        -0.3740
      46    C14     17.698216   23.037815   23.226446 C.3        1 MOL1         0.1003
      47    H22     16.896172   23.700105   23.577473 H          1 MOL1         0.0783
      48    O12     18.607382   22.783163   24.309405 O.3        1 MOL1        -0.5519
      49    H23     19.400285   23.352751   24.161114 H          1 MOL1         0.3769
      50    C15     17.057658   21.714696   22.747377 C.3        1 MOL1         0.1053
      51    H24     17.866603   21.026695   22.478508 H          1 MOL1         0.0783
      52    O13     16.290003   21.154099   23.816420 O.3        1 MOL1        -0.5519
      53    H25     16.864288   21.255840   24.607244 H          1 MOL1         0.3769
      54    C16     16.174021   21.919163   21.490609 C.3        1 MOL1         0.1018
      55    H26     15.213815   22.354028   21.798457 H          1 MOL1         0.0783
      56    C17     16.850072   22.818702   20.416967 C.3        1 MOL1         0.1043
      57    H27     17.647161   22.236139   19.937108 H          1 MOL1         0.0783
      58    O14     17.418984   24.001425   21.030394 O.3        1 MOL1        -0.3740
      59    C18     15.881769   23.282019   19.305925 C.3        1 MOL1         0.0138
      60    H28     15.533563   22.404236   18.745612 H          1 MOL1         0.0794
      61    H29     16.431619   23.920865   18.601871 H          1 MOL1         0.0794
      62    O15     14.766890   23.991524   19.853475 O.3        1 MOL1        -0.5486
      63    H30     15.141896   24.746917   20.358751 H          1 MOL1         0.3769
      64    C19     23.569006   22.772260   21.173236 C.3        1 MOL1         0.2972
      65    H31     24.621763   22.992100   20.954010 H          1 MOL1         0.0751
      66    O16     23.378337   21.396703   21.554552 O.3        1 MOL1        -0.3740
      67    C20     23.041632   23.668787   22.325285 C.3        1 MOL1         0.1003
      68    H32     23.140728   24.713537   22.002262 H          1 MOL1         0.0783
      69    O17     23.794099   23.468243   23.534860 O.3        1 MOL1        -0.5519
      70    H33     24.682095   23.862150   23.399044 H          1 MOL1         0.3769
      71    C21     21.541062   23.390544   22.588431 C.3        1 MOL1         0.1053
      72    H34     21.455605   22.369807   22.982364 H          1 MOL1         0.0783
      73    O18     21.060735   24.322263   23.563656 O.3        1 MOL1        -0.5519
      74    H35     21.768459   24.352662   24.246978 H          1 MOL1         0.3769
      75    C22     20.710022   23.475290   21.277210 C.3        1 MOL1         0.1018
      76    H36     20.617752   24.523325   20.962202 H          1 MOL1         0.0783
      77    C23     21.359768   22.665833   20.124716 C.3        1 MOL1         0.1043
      78    H37     21.259366   21.594738   20.339889 H          1 MOL1         0.0783
      79    O19     22.756519   23.032046   20.009847 O.3        1 MOL1        -0.3740
      80    C24     20.691549   22.949485   18.763902 C.3        1 MOL1         0.0138
      81    H38     20.841545   24.004432   18.498092 H          1 MOL1         0.0794
      82    H39     19.611070   22.776025   18.846372 H          1 MOL1         0.0794
      83    O20     21.245307   22.094536   17.762225 O.3        1 MOL1        -0.5486
      84    H40     22.218250   22.222861   17.803145 H          1 MOL1         0.3769
      85    C25     25.196895   17.721397   21.781567 C.3        1 MOL1         0.2972
      86    H41     25.867370   16.855032   21.844173 H          1 MOL1         0.0751
      87    O21     23.823623   17.326410   21.579642 O.3        1 MOL1        -0.3740
      88    C26     25.292220   18.561296   23.078650 C.3        1 MOL1         0.1003
      89    H42     26.322352   18.932390   23.158281 H          1 MOL1         0.0783
      90    O22     24.982039   17.774826   24.236507 O.3        1 MOL1        -0.5519
      91    H43     24.896391   18.430866   24.964638 H          1 MOL1         0.3769
      92    C27     24.348887   19.780795   23.002826 C.3        1 MOL1         0.1053
      93    H44     23.320119   19.403676   23.000142 H          1 MOL1         0.0783
      94    O23     24.555720   20.625794   24.141241 O.3        1 MOL1        -0.5519
      95    H45     24.066500   21.466009   23.965747 H          1 MOL1         0.3769
      96    C28     24.564002   20.594599   21.703698 C.3        1 MOL1         0.1018
      97    H46     25.466284   21.208722   21.824058 H          1 MOL1         0.0783
      98    C29     24.688502   19.702813   20.433903 C.3        1 MOL1         0.1043
      99    H47     23.688874   19.328501   20.176180 H          1 MOL1         0.0783
     100    O24     25.575287   18.582153   20.686234 O.3        1 MOL1        -0.3740
     101    C30     25.230655   20.462744   19.203225 C.3        1 MOL1         0.0138
     102    H48     24.516917   21.248190   18.923016 H          1 MOL1         0.0794
     103    H49     25.295768   19.765008   18.357577 H          1 MOL1         0.0794
     104    O25     26.513014   21.035837   19.474441 O.3        1 MOL1        -0.5486
     105    H50     27.096410   20.291025   19.741713 H          1 MOL1         0.3769
     106    C31     21.357697   14.045930   20.953401 C.3        1 MOL1         0.2972
     107    H51     20.944959   13.064467   20.688240 H          1 MOL1         0.0751
     108    O26     20.311472   15.001037   21.224068 O.3        1 MOL1        -0.3740
     109    C32     22.295742   13.935775   22.185868 C.3        1 MOL1         0.1003
     110    H52     23.102095   13.241033   21.916903 H          1 MOL1         0.0783
     111    O27     21.610854   13.431301   23.339334 O.3        1 MOL1        -0.5519
     112    H53     22.270170   13.490872   24.067157 H          1 MOL1         0.3769
     113    C33     22.940780   15.301315   22.520388 C.3        1 MOL1         0.1053
     114    H54     22.148831   15.974862   22.876359 H          1 MOL1         0.0783
     115    O28     23.925452   15.122030   23.545128 O.3        1 MOL1        -0.5519
     116    H55     24.241521   16.025449   23.797321 H          1 MOL1         0.3769
     117    C34     23.592866   15.940252   21.267988 C.3        1 MOL1         0.1018
     118    H56     24.523267   15.409401   21.025774 H          1 MOL1         0.0783
     119    C35     22.660728   15.902878   20.030379 C.3        1 MOL1         0.1043
     120    H57     21.840477   16.613036   20.185236 H          1 MOL1         0.0783
     121    O29     22.144895   14.559737   19.857748 O.3        1 MOL1        -0.3740
     122    C36     23.398548   16.290918   18.732708 C.3        1 MOL1         0.0138
     123    H58     24.167243   15.538097   18.512656 H          1 MOL1         0.0794
     124    H59     23.905547   17.253843   18.875553 H          1 MOL1         0.0794
     125    O30     22.466612   16.388916   17.654572 O.3        1 MOL1        -0.5486
     126    H60     21.963912   15.544541   17.650632 H          1 MOL1         0.3769
     127    C1      19.731271   18.569822   19.387742 C.3        1 MOL1        -0.2426
     128    H1      18.907979   18.765589   18.688589 H          1 MOL1         0.0959
     129    H2      20.640209   19.019722   18.966536 H          1 MOL1         0.0959
     130    H3      19.874510   17.483173   19.436556 H          1 MOL1         0.0959
     131    C2      19.414614   19.150382   20.781850 C.3        1 MOL1        -0.1410
     132    H4      18.522325   18.652657   21.182211 H          1 MOL1         0.0948
     133    H5      19.165575   20.214921   20.679488 H          1 MOL1         0.0948
     134    C3      20.602031   18.986192   21.759118 C.3        1 MOL1        -0.1435
     135    H6      20.861478   17.923567   21.854801 H          1 MOL1         0.0948
     136    H7      21.484264   19.479483   21.333310 H          1 MOL1         0.0948
     137    C4      20.325051   19.576304   23.163555 C.3        1 MOL1        -0.1435
     138    H8      19.985652   20.614992   23.075091 H          1 MOL1         0.0948
     139    H9      21.263256   19.608444   23.730945 H          1 MOL1         0.0948
     140    C5      19.298527   18.744814   23.961916 C.3        1 MOL1        -0.1435
     141    H10     18.325952   18.740833   23.452039 H          1 MOL1         0.0948
     142    H11     19.655082   17.710720   23.995541 H          1 MOL1         0.0948
     143    C6      19.116168   19.250778   25.408818 C.3        1 MOL1        -0.1500
     144    H12     18.849917   20.314856   25.389565 H          1 MOL1         0.0948
     145    H13     20.069741   19.174841   25.947605 H          1 MOL1         0.0948
     146    C7      18.023170   18.469540   26.169908 C.3        1 MOL1         0.1162
     147    H14     17.075815   18.597832   25.636379 H          1 MOL1         0.0910
     148    C8      17.858205   19.035403   27.588747 C.3        1 MOL1        -0.2491
     149    H15     17.048650   18.519635   28.119420 H          1 MOL1         0.0959
     150    H16     18.780112   18.917601   28.171655 H          1 MOL1         0.0959
     151    H17     17.608195   20.103133   27.554826 H          1 MOL1         0.0959
     152    N1      18.285913   16.987074   26.213089 N.4        1 MOL1        -0.5987
     153    H18     18.210634   16.566833   25.267732 H          1 MOL1         0.3605
     154    H19     17.594364   16.501783   26.788982 H          1 MOL1         0.3605
     155    H20     19.216821   16.766740   26.573260 H          1 MOL1         0.3605
@<TRIPOS>BOND
    1     1     2    1
    2     1     3    1
    3     1     4    1
    4     4     5    1
    5     4     6    1
    6     6     7    1
    7     4     8    1
    8     8     9    1
    9     8    10    1
   10    10    11    1
   11     8    12    1
   12    12    13    1
   13    12    14    1
   14    14    15    1
   15     1    16    1
   16    14    16    1
   17    14    17    1
   18    17    18    1
   19    17    19    1
   20    17    20    1
   21    20    21    1
   22    22    23    1
   23    22    24    1
   24    22    25    1
   25    25    26    1
   26    25    27    1
   27    27    28    1
   28    25    29    1
   29    29    30    1
   30    29    31    1
   31    31    32    1
   32     3    33    1
   33    29    33    1
   34    33    34    1
   35    33    35    1
   36    35    36    1
   37    22    37    1
   38    35    37    1
   39    35    38    1
   40    38    39    1
   41    38    40    1
   42    38    41    1
   43    41    42    1
   44    43    44    1
   45    43    45    1
   46    43    46    1
   47    46    47    1
   48    46    48    1
   49    48    49    1
   50    46    50    1
   51    50    51    1
   52    50    52    1
   53    52    53    1
   54    24    54    1
   55    50    54    1
   56    54    55    1
   57    54    56    1
   58    56    57    1
   59    43    58    1
   60    56    58    1
   61    56    59    1
   62    59    60    1
   63    59    61    1
   64    59    62    1
   65    62    63    1
   66    64    65    1
   67    64    66    1
   68    64    67    1
   69    67    68    1
   70    67    69    1
   71    69    70    1
   72    67    71    1
   73    71    72    1
   74    71    73    1
   75    73    74    1
   76    45    75    1
   77    71    75    1
   78    75    76    1
   79    75    77    1
   80    77    78    1
   81    64    79    1
   82    77    79    1
   83    77    80    1
   84    80    81    1
   85    80    82    1
   86    80    83    1
   87    83    84    1
   88    85    86    1
   89    85    87    1
   90    85    88    1
   91    88    89    1
   92    88    90    1
   93    90    91    1
   94    88    92    1
   95    92    93    1
   96    92    94    1
   97    94    95    1
   98    66    96    1
   99    92    96    1
  100    96    97    1
  101    96    98    1
  102    98    99    1
  103    85   100    1
  104    98   100    1
  105    98   101    1
  106   101   102    1
  107   101   103    1
  108   101   104    1
  109   104   105    1
  110   106   107    1
  111    12   108    1
  112   106   108    1
  113   106   109    1
  114   109   110    1
  115   109   111    1
  116   111   112    1
  117   109   113    1
  118   113   114    1
  119   113   115    1
  120   115   116    1
  121    87   117    1
  122   113   117    1
  123   117   118    1
  124   117   119    1
  125   119   120    1
  126   106   121    1
  127   119   121    1
  128   119   122    1
  129   122   123    1
  130   122   124    1
  131   122   125    1
  132   125   126    1
  133   127   128    1
  134   127   129    1
  135   127   130    1
  136   127   131    1
  137   131   132    1
  138   131   133    1
  139   131   134    1
  140   134   135    1
  141   134   136    1
  142   134   137    1
  143   137   138    1
  144   137   139    1
  145   137   140    1
  146   140   141    1
  147   140   142    1
  148   140   143    1
  149   143   144    1
  150   143   145    1
  151   143   146    1
  152   146   147    1
  153   146   148    1
  154   148   149    1
  155   148   150    1
  156   148   151    1
  157   146   152    1
  158   152   153    1
  159   152   154    1
  160   152   155    1
@<TRIPOS>SUBSTRUCTURE
       1 MOL1            1 RESIDUE      1      MOL     
       2 MOL1          155 RESIDUE      1      MOL     
@<SCITEGIC>MOL_PROPERTY
VM2 Rank
SciTegic.value.IntegerValue
6

@<SCITEGIC>MOL_PROPERTY
Conf_Id
SciTegic.value.IntegerValue
25190

@<SCITEGIC>MOL_PROPERTY
Probability
SciTegic.value.DoubleValue
1.58

@<SCITEGIC>MOL_PROPERTY
Sum Probability
SciTegic.value.DoubleValue
13.24

@<SCITEGIC>MOL_PROPERTY
Delta G
SciTegic.value.DoubleValue
0.482

@<SCITEGIC>MOL_PROPERTY
G
SciTegic.value.DoubleValue
551.780

@<SCITEGIC>MOL_PROPERTY
E
SciTegic.value.DoubleValue
343.154

@<SCITEGIC>MOL_PROPERTY
-TS
SciTegic.value.DoubleValue
208.625

@<SCITEGIC>MOL_PROPERTY
U+W
SciTegic.value.DoubleValue
206.335

@<SCITEGIC>MOL_PROPERTY
U
SciTegic.value.DoubleValue
276.129

@<SCITEGIC>MOL_PROPERTY
W
SciTegic.value.DoubleValue
-69.794

@<SCITEGIC>MOL_PROPERTY
W(PB)
SciTegic.value.DoubleValue
-76.137

@<SCITEGIC>MOL_PROPERTY
W(SA)
SciTegic.value.DoubleValue
6.343

@<SCITEGIC>MOL_PROPERTY
Valence
SciTegic.value.DoubleValue
146.508

@<SCITEGIC>MOL_PROPERTY
Coulomb
SciTegic.value.DoubleValue
156.845

@<SCITEGIC>MOL_PROPERTY
VdW
SciTegic.value.DoubleValue
-27.224

@<SCITEGIC>MOL_PROPERTY
VdW6
SciTegic.value.DoubleValue
-183.764

@<SCITEGIC>MOL_PROPERTY
VdW12
SciTegic.value.DoubleValue
156.540

@<SCITEGIC>MOL_PROPERTY
Bond
SciTegic.value.DoubleValue
4.294

@<SCITEGIC>MOL_PROPERTY
Angle
SciTegic.value.DoubleValue
10.374

@<SCITEGIC>MOL_PROPERTY
Pdih
SciTegic.value.DoubleValue
131.841

@<SCITEGIC>MOL_PROPERTY
Idih
SciTegic.value.DoubleValue
0.000

@<SCITEGIC>MOL_PROPERTY
Tether
SciTegic.value.DoubleValue
0.000

@<TRIPOS>MOLECULE
CD_guest-s15_vm2_single.mol2 : vm2 host+ligand conformer 7
         155         160           2
SMALL
USER_CHARGES
 
@<TRIPOS>ATOM
       1    C1      16.224288   15.321169   21.715449 C.3        1 MOL1         0.2972
       2    H1      15.156415   15.161609   21.912243 H          1 MOL1         0.0751
       3    O1      16.460941   16.593407   21.079408 O.3        1 MOL1        -0.3740
       4    C2      17.032622   15.252733   23.037959 C.3        1 MOL1         0.1003
       5    H2      16.861950   14.258854   23.471066 H          1 MOL1         0.0783
       6    O2      16.588615   16.252756   23.968375 O.3        1 MOL1        -0.5519
       7    H3      15.680892   16.524894   23.694140 H          1 MOL1         0.3769
       8    C3      18.549402   15.404579   22.770163 C.3        1 MOL1         0.1053
       9    H4      18.725541   16.434198   22.436098 H          1 MOL1         0.0783
      10    O3      19.285120   15.137273   23.972714 O.3        1 MOL1        -0.5519
      11    H5      20.132927   14.714488   23.696104 H          1 MOL1         0.3769
      12    C4      19.048774   14.467480   21.643505 C.3        1 MOL1         0.1018
      13    H6      19.150404   13.452231   22.050382 H          1 MOL1         0.0783
      14    C5      18.103382   14.455497   20.408485 C.3        1 MOL1         0.1043
      15    H7      18.213906   15.411973   19.880249 H          1 MOL1         0.0783
      16    O4      16.729019   14.291717   20.838699 O.3        1 MOL1        -0.3740
      17    C6      18.415267   13.329852   19.397041 C.3        1 MOL1         0.0138
      18    H8      19.403478   13.509630   18.953735 H          1 MOL1         0.0794
      19    H9      17.680897   13.375212   18.581688 H          1 MOL1         0.0794
      20    O5      18.381532   12.044493   20.023843 O.3        1 MOL1        -0.5486
      21    H10     17.485272   11.952927   20.417322 H          1 MOL1         0.3769
      22    C7      14.685173   20.247228   20.493051 C.3        1 MOL1         0.2972
      23    H11     14.082180   21.123592   20.222727 H          1 MOL1         0.0751
      24    O6      16.016854   20.621235   20.900645 O.3        1 MOL1        -0.3740
      25    C8      14.012884   19.425951   21.621947 C.3        1 MOL1         0.1003
      26    H12     13.058942   19.055460   21.224481 H          1 MOL1         0.0783
      27    O7      13.750323   20.223586   22.786117 O.3        1 MOL1        -0.5519
      28    H13     14.626672   20.533605   23.128904 H          1 MOL1         0.3769
      29    C9      14.881761   18.200519   21.993531 C.3        1 MOL1         0.1053
      30    H14     15.796979   18.570092   22.477436 H          1 MOL1         0.0783
      31    O8      14.142729   17.382371   22.907406 O.3        1 MOL1        -0.5519
      32    H15     13.703066   18.016916   23.518091 H          1 MOL1         0.3769
      33    C10     15.298493   17.376436   20.740685 C.3        1 MOL1         0.1018
      34    H16     14.463020   16.736985   20.425893 H          1 MOL1         0.0783
      35    C11     15.728659   18.257021   19.535667 C.3        1 MOL1         0.1043
      36    H17     16.739160   18.639312   19.721356 H          1 MOL1         0.0783
      37    O9      14.804844   19.359788   19.362565 O.3        1 MOL1        -0.3740
      38    C12     15.759941   17.454508   18.219014 C.3        1 MOL1         0.0138
      39    H18     14.741743   17.128376   17.967991 H          1 MOL1         0.0794
      40    H19     16.375086   16.555324   18.358577 H          1 MOL1         0.0794
      41    O10     16.303559   18.258580   17.170598 O.3        1 MOL1        -0.5486
      42    H20     15.794076   19.099238   17.180013 H          1 MOL1         0.3769
      43    C13     18.411358   23.761499   22.055157 C.3        1 MOL1         0.2972
      44    H21     18.840684   24.711709   22.397164 H          1 MOL1         0.0751
      45    O11     19.421997   22.883514   21.517253 O.3        1 MOL1        -0.3740
      46    C14     17.700720   23.043264   23.229032 C.3        1 MOL1         0.1003
      47    H22     16.897663   23.706397   23.576248 H          1 MOL1         0.0783
      48    O12     18.608592   22.791924   24.314122 O.3        1 MOL1        -0.5519
      49    H23     19.403177   23.358474   24.163162 H          1 MOL1         0.3769
      50    C15     17.061942   21.718711   22.752447 C.3        1 MOL1         0.1053
      51    H24     17.871579   21.032143   22.482173 H          1 MOL1         0.0783
      52    O13     16.297189   21.156502   23.823041 O.3        1 MOL1        -0.5519
      53    H25     16.871507   21.262432   24.613262 H          1 MOL1         0.3769
      54    C16     16.176229   21.921710   21.497401 C.3        1 MOL1         0.1018
      55    H26     15.217285   22.356971   21.808474 H          1 MOL1         0.0783
      56    C17     16.848993   22.820506   20.420970 C.3        1 MOL1         0.1043
      57    H27     17.647947   22.236477   19.946398 H          1 MOL1         0.0783
      58    O14     17.426481   24.001793   21.029586 O.3        1 MOL1        -0.3740
      59    C18     15.884636   23.269152   19.296861 C.3        1 MOL1         0.0138
      60    H28     15.652376   22.398118   18.669303 H          1 MOL1         0.0794
      61    H29     16.403619   23.999168   18.661332 H          1 MOL1         0.0794
      62    O15     14.672590   23.831766   19.814891 O.3        1 MOL1        -0.5486
      63    H30     14.150741   24.167887   19.053721 H          1 MOL1         0.3769
      64    C19     23.573000   22.772374   21.173323 C.3        1 MOL1         0.2972
      65    H31     24.625505   22.991982   20.952646 H          1 MOL1         0.0751
      66    O16     23.382816   21.397195   21.556255 O.3        1 MOL1        -0.3740
      67    C20     23.046909   23.670054   22.325095 C.3        1 MOL1         0.1003
      68    H32     23.145590   24.714501   22.000970 H          1 MOL1         0.0783
      69    O17     23.800699   23.470622   23.534033 O.3        1 MOL1        -0.5519
      70    H33     24.688548   23.864392   23.396890 H          1 MOL1         0.3769
      71    C21     21.546674   23.391921   22.590185 C.3        1 MOL1         0.1053
      72    H34     21.461865   22.371602   22.985318 H          1 MOL1         0.0783
      73    O18     21.066948   24.324468   23.564909 O.3        1 MOL1        -0.5519
      74    H35     21.775006   24.355404   24.247845 H          1 MOL1         0.3769
      75    C22     20.714173   23.475044   21.279853 C.3        1 MOL1         0.1018
      76    H36     20.621063   24.522713   20.963850 H          1 MOL1         0.0783
      77    C23     21.362581   22.664638   20.127355 C.3        1 MOL1         0.1043
      78    H37     21.262527   21.593764   20.343619 H          1 MOL1         0.0783
      79    O19     22.759176   23.030866   20.010540 O.3        1 MOL1        -0.3740
      80    C24     20.692488   22.946984   18.767193 C.3        1 MOL1         0.0138
      81    H38     20.842361   24.001605   18.500030 H          1 MOL1         0.0794
      82    H39     19.612061   22.773911   18.851453 H          1 MOL1         0.0794
      83    O20     21.244572   22.090801   17.765645 O.3        1 MOL1        -0.5486
      84    H40     22.217618   22.218807   17.805069 H          1 MOL1         0.3769
      85    C25     25.202187   17.722724   21.785745 C.3        1 MOL1         0.2972
      86    H41     25.872616   16.856384   21.849164 H          1 MOL1         0.0751
      87    O21     23.829109   17.327723   21.582710 O.3        1 MOL1        -0.3740
      88    C26     25.295947   18.562590   23.082902 C.3        1 MOL1         0.1003
      89    H42     26.325992   18.933624   23.163902 H          1 MOL1         0.0783
      90    O22     24.984140   17.775840   24.240174 O.3        1 MOL1        -0.5519
      91    H43     24.897758   18.431652   24.968412 H          1 MOL1         0.3769
      92    C27     24.352675   19.782108   23.005891 C.3        1 MOL1         0.1053
      93    H44     23.323951   19.404903   23.002318 H          1 MOL1         0.0783
      94    O23     24.558356   20.627377   24.144313 O.3        1 MOL1        -0.5519
      95    H45     24.070255   21.467991   23.967631 H          1 MOL1         0.3769
      96    C28     24.568752   20.595746   21.706785 C.3        1 MOL1         0.1018
      97    H46     25.470576   21.210388   21.827934 H          1 MOL1         0.0783
      98    C29     24.694887   19.703802   20.437265 C.3        1 MOL1         0.1043
      99    H47     23.695627   19.329182   20.178547 H          1 MOL1         0.0783
     100    O24     25.581667   18.583424   20.690754 O.3        1 MOL1        -0.3740
     101    C30     25.238104   20.463611   19.206978 C.3        1 MOL1         0.0138
     102    H48     24.524286   21.248591   18.925659 H          1 MOL1         0.0794
     103    H49     25.304553   19.765628   18.361634 H          1 MOL1         0.0794
     104    O25     26.519851   21.037456   19.479489 O.3        1 MOL1        -0.5486
     105    H50     27.103392   20.293013   19.747470 H          1 MOL1         0.3769
     106    C31     21.363020   14.049635   20.947865 C.3        1 MOL1         0.2972
     107    H51     20.949376   13.068678   20.681058 H          1 MOL1         0.0751
     108    O26     20.317037   15.006188   21.215969 O.3        1 MOL1        -0.3740
     109    C32     22.298060   13.937669   22.182371 C.3        1 MOL1         0.1003
     110    H52     23.104848   13.242977   21.914546 H          1 MOL1         0.0783
     111    O27     21.609902   13.431751   23.333193 O.3        1 MOL1        -0.5519
     112    H53     22.267530   13.489129   24.062749 H          1 MOL1         0.3769
     113    C33     22.942744   15.302726   22.519703 C.3        1 MOL1         0.1053
     114    H54     22.150129   15.976500   22.873726 H          1 MOL1         0.0783
     115    O28     23.924413   15.122717   23.547181 O.3        1 MOL1        -0.5519
     116    H55     24.241035   16.025867   23.799665 H          1 MOL1         0.3769
     117    C34     23.598739   15.941928   21.269462 C.3        1 MOL1         0.1018
     118    H56     24.529612   15.410754   21.029776 H          1 MOL1         0.0783
     119    C35     22.670230   15.905798   20.029073 C.3        1 MOL1         0.1043
     120    H57     21.850301   16.616884   20.181674 H          1 MOL1         0.0783
     121    O29     22.153526   14.563198   19.854584 O.3        1 MOL1        -0.3740
     122    C36     23.412248   16.293293   18.733631 C.3        1 MOL1         0.0138
     123    H58     24.180423   15.539415   18.515381 H          1 MOL1         0.0794
     124    H59     23.920304   17.255377   18.878282 H          1 MOL1         0.0794
     125    O30     22.483463   16.393209   17.652948 O.3        1 MOL1        -0.5486
     126    H60     21.979481   15.549579   17.647094 H          1 MOL1         0.3769
     127    C1      19.734087   18.569990   19.389034 C.3        1 MOL1        -0.2426
     128    H1      18.910064   18.764036   18.690265 H          1 MOL1         0.0959
     129    H2      20.642095   19.020868   18.966857 H          1 MOL1         0.0959
     130    H3      19.879005   17.483610   19.438686 H          1 MOL1         0.0959
     131    C2      19.417607   19.151342   20.782857 C.3        1 MOL1        -0.1410
     132    H4      18.525464   18.653754   21.183740 H          1 MOL1         0.0948
     133    H5      19.168199   20.215773   20.679980 H          1 MOL1         0.0948
     134    C3      20.605447   18.987950   21.759795 C.3        1 MOL1        -0.1435
     135    H6      20.864837   17.925383   21.856329 H          1 MOL1         0.0948
     136    H7      21.487641   19.480593   21.333147 H          1 MOL1         0.0948
     137    C4      20.329231   19.579615   23.163760 C.3        1 MOL1        -0.1435
     138    H8      19.990929   20.618599   23.074505 H          1 MOL1         0.0948
     139    H9      21.267489   19.611169   23.731069 H          1 MOL1         0.0948
     140    C5      19.301773   18.750117   23.962885 C.3        1 MOL1        -0.1435
     141    H10     18.328788   18.748053   23.453753 H          1 MOL1         0.0948
     142    H11     19.656430   17.715411   23.996228 H          1 MOL1         0.0948
     143    C6      19.121606   19.256180   25.410015 C.3        1 MOL1        -0.1500
     144    H12     18.857589   20.320840   25.391301 H          1 MOL1         0.0948
     145    H13     20.075472   19.178020   25.947969 H          1 MOL1         0.0948
     146    C7      18.027625   18.476934   26.171747 C.3        1 MOL1         0.1162
     147    H14     17.079688   18.609197   25.640222 H          1 MOL1         0.0910
     148    C8      17.867079   19.040673   27.591934 C.3        1 MOL1        -0.2491
     149    H15     17.056822   18.526546   28.123125 H          1 MOL1         0.0959
     150    H16     18.789656   18.918797   28.172941 H          1 MOL1         0.0959
     151    H17     17.620480   20.109271   27.560435 H          1 MOL1         0.0959
     152    N1      18.285819   16.993548   26.211510 N.4        1 MOL1        -0.5987
     153    H18     18.206358   16.575596   25.265495 H          1 MOL1         0.3605
     154    H19     17.594653   16.509320   26.788743 H          1 MOL1         0.3605
     155    H20     19.217223   16.769686   26.568245 H          1 MOL1         0.3605
@<TRIPOS>BOND
    1     1     2    1
    2     1     3    1
    3     1     4    1
    4     4     5    1
    5     4     6    1
    6     6     7    1
    7     4     8    1
    8     8     9    1
    9     8    10    1
   10    10    11    1
   11     8    12    1
   12    12    13    1
   13    12    14    1
   14    14    15    1
   15     1    16    1
   16    14    16    1
   17    14    17    1
   18    17    18    1
   19    17    19    1
   20    17    20    1
   21    20    21    1
   22    22    23    1
   23    22    24    1
   24    22    25    1
   25    25    26    1
   26    25    27    1
   27    27    28    1
   28    25    29    1
   29    29    30    1
   30    29    31    1
   31    31    32    1
   32     3    33    1
   33    29    33    1
   34    33    34    1
   35    33    35    1
   36    35    36    1
   37    22    37    1
   38    35    37    1
   39    35    38    1
   40    38    39    1
   41    38    40    1
   42    38    41    1
   43    41    42    1
   44    43    44    1
   45    43    45    1
   46    43    46    1
   47    46    47    1
   48    46    48    1
   49    48    49    1
   50    46    50    1
   51    50    51    1
   52    50    52    1
   53    52    53    1
   54    24    54    1
   55    50    54    1
   56    54    55    1
   57    54    56    1
   58    56    57    1
   59    43    58    1
   60    56    58    1
   61    56    59    1
   62    59    60    1
   63    59    61    1
   64    59    62    1
   65    62    63    1
   66    64    65    1
   67    64    66    1
   68    64    67    1
   69    67    68    1
   70    67    69    1
   71    69    70    1
   72    67    71    1
   73    71    72    1
   74    71    73    1
   75    73    74    1
   76    45    75    1
   77    71    75    1
   78    75    76    1
   79    75    77    1
   80    77    78    1
   81    64    79    1
   82    77    79    1
   83    77    80    1
   84    80    81    1
   85    80    82    1
   86    80    83    1
   87    83    84    1
   88    85    86    1
   89    85    87    1
   90    85    88    1
   91    88    89    1
   92    88    90    1
   93    90    91    1
   94    88    92    1
   95    92    93    1
   96    92    94    1
   97    94    95    1
   98    66    96    1
   99    92    96    1
  100    96    97    1
  101    96    98    1
  102    98    99    1
  103    85   100    1
  104    98   100    1
  105    98   101    1
  106   101   102    1
  107   101   103    1
  108   101   104    1
  109   104   105    1
  110   106   107    1
  111    12   108    1
  112   106   108    1
  113   106   109    1
  114   109   110    1
  115   109   111    1
  116   111   112    1
  117   109   113    1
  118   113   114    1
  119   113   115    1
  120   115   116    1
  121    87   117    1
  122   113   117    1
  123   117   118    1
  124   117   119    1
  125   119   120    1
  126   106   121    1
  127   119   121    1
  128   119   122    1
  129   122   123    1
  130   122   124    1
  131   122   125    1
  132   125   126    1
  133   127   128    1
  134   127   129    1
  135   127   130    1
  136   127   131    1
  137   131   132    1
  138   131   133    1
  139   131   134    1
  140   134   135    1
  141   134   136    1
  142   134   137    1
  143   137   138    1
  144   137   139    1
  145   137   140    1
  146   140   141    1
  147   140   142    1
  148   140   143    1
  149   143   144    1
  150   143   145    1
  151   143   146    1
  152   146   147    1
  153   146   148    1
  154   148   149    1
  155   148   150    1
  156   148   151    1
  157   146   152    1
  158   152   153    1
  159   152   154    1
  160   152   155    1
@<TRIPOS>SUBSTRUCTURE
       1 MOL1            1 RESIDUE      1      MOL     
       2 MOL1          155 RESIDUE      1      MOL     
@<SCITEGIC>MOL_PROPERTY
VM2 Rank
SciTegic.value.IntegerValue
7

@<SCITEGIC>MOL_PROPERTY
Conf_Id
SciTegic.value.IntegerValue
22439

@<SCITEGIC>MOL_PROPERTY
Probability
SciTegic.value.DoubleValue
1.53

@<SCITEGIC>MOL_PROPERTY
Sum Probability
SciTegic.value.DoubleValue
14.77

@<SCITEGIC>MOL_PROPERTY
Delta G
SciTegic.value.DoubleValue
0.502

@<SCITEGIC>MOL_PROPERTY
G
SciTegic.value.DoubleValue
551.800

@<SCITEGIC>MOL_PROPERTY
E
SciTegic.value.DoubleValue
343.171

@<SCITEGIC>MOL_PROPERTY
-TS
SciTegic.value.DoubleValue
208.629

@<SCITEGIC>MOL_PROPERTY
U+W
SciTegic.value.DoubleValue
206.351

@<SCITEGIC>MOL_PROPERTY
U
SciTegic.value.DoubleValue
276.074

@<SCITEGIC>MOL_PROPERTY
W
SciTegic.value.DoubleValue
-69.723

@<SCITEGIC>MOL_PROPERTY
W(PB)
SciTegic.value.DoubleValue
-76.053

@<SCITEGIC>MOL_PROPERTY
W(SA)
SciTegic.value.DoubleValue
6.330

@<SCITEGIC>MOL_PROPERTY
Valence
SciTegic.value.DoubleValue
146.463

@<SCITEGIC>MOL_PROPERTY
Coulomb
SciTegic.value.DoubleValue
156.834

@<SCITEGIC>MOL_PROPERTY
VdW
SciTegic.value.DoubleValue
-27.223

@<SCITEGIC>MOL_PROPERTY
VdW6
SciTegic.value.DoubleValue
-183.803

@<SCITEGIC>MOL_PROPERTY
VdW12
SciTegic.value.DoubleValue
156.581

@<SCITEGIC>MOL_PROPERTY
Bond
SciTegic.value.DoubleValue
4.293

@<SCITEGIC>MOL_PROPERTY
Angle
SciTegic.value.DoubleValue
10.373

@<SCITEGIC>MOL_PROPERTY
Pdih
SciTegic.value.DoubleValue
131.796

@<SCITEGIC>MOL_PROPERTY
Idih
SciTegic.value.DoubleValue
0.000

@<SCITEGIC>MOL_PROPERTY
Tether
SciTegic.value.DoubleValue
0.000

@<TRIPOS>MOLECULE
CD_guest-s15_vm2_single.mol2 : vm2 host+ligand conformer 8
         155         160           2
SMALL
USER_CHARGES
 
@<TRIPOS>ATOM
       1    C1      16.247856   15.315932   21.688757 C.3        1 MOL1         0.2972
       2    H1      15.177781   15.154030   21.871189 H          1 MOL1         0.0751
       3    O1      16.491028   16.590494   21.059876 O.3        1 MOL1        -0.3740
       4    C2      17.038890   15.245278   23.021421 C.3        1 MOL1         0.1003
       5    H2      16.866013   14.249396   23.449010 H          1 MOL1         0.0783
       6    O2      16.579416   16.241036   23.948978 O.3        1 MOL1        -0.5519
       7    H3      15.677851   16.517317   23.658988 H          1 MOL1         0.3769
       8    C3      18.558304   15.403319   22.773106 C.3        1 MOL1         0.1053
       9    H4      18.734564   16.435017   22.445423 H          1 MOL1         0.0783
      10    O3      19.281440   15.133407   23.982682 O.3        1 MOL1        -0.5519
      11    H5      20.139179   14.726320   23.712755 H          1 MOL1         0.3769
      12    C4      19.075673   14.473197   21.649017 C.3        1 MOL1         0.1018
      13    H6      19.180548   13.457427   22.053779 H          1 MOL1         0.0783
      14    C5      18.145124   14.459090   20.402660 C.3        1 MOL1         0.1043
      15    H7      18.258679   15.416580   19.876876 H          1 MOL1         0.0783
      16    O4      16.766170   14.290027   20.815856 O.3        1 MOL1        -0.3740
      17    C6      18.473035   13.335980   19.393471 C.3        1 MOL1         0.0138
      18    H8      19.465264   13.520468   18.961256 H          1 MOL1         0.0794
      19    H9      17.747568   13.379210   18.570069 H          1 MOL1         0.0794
      20    O5      18.437781   12.049737   20.018352 O.3        1 MOL1        -0.5486
      21    H10     17.537451   11.953673   20.401324 H          1 MOL1         0.3769
      22    C7      14.713454   20.237726   20.440248 C.3        1 MOL1         0.2972
      23    H11     14.110994   21.111316   20.159495 H          1 MOL1         0.0751
      24    O6      16.038686   20.618350   20.864238 O.3        1 MOL1        -0.3740
      25    C8      14.026985   19.415450   21.560067 C.3        1 MOL1         0.1003
      26    H12     13.081566   19.039463   21.147649 H          1 MOL1         0.0783
      27    O7      13.740491   20.213924   22.717874 O.3        1 MOL1        -0.5519
      28    H13     14.609984   20.519448   23.081339 H          1 MOL1         0.3769
      29    C9      14.895531   18.194752   21.947488 C.3        1 MOL1         0.1053
      30    H14     15.802783   18.569084   22.442591 H          1 MOL1         0.0783
      31    O8      14.147901   17.375659   22.853446 O.3        1 MOL1        -0.5519
      32    H15     13.696998   18.009580   23.456489 H          1 MOL1         0.3769
      33    C10     15.331799   17.369455   20.702306 C.3        1 MOL1         0.1018
      34    H16     14.502523   16.727215   20.376957 H          1 MOL1         0.0783
      35    C11     15.776805   18.248846   19.501796 C.3        1 MOL1         0.1043
      36    H17     16.783560   18.634121   19.701157 H          1 MOL1         0.0783
      37    O9      14.852460   19.348757   19.313245 O.3        1 MOL1        -0.3740
      38    C12     15.828939   17.443807   18.187341 C.3        1 MOL1         0.0138
      39    H18     14.815272   17.114499   17.922507 H          1 MOL1         0.0794
      40    H19     16.444364   16.546522   18.337427 H          1 MOL1         0.0794
      41    O10     16.385302   18.247209   17.145125 O.3        1 MOL1        -0.5486
      42    H20     15.873988   19.086829   17.145902 H          1 MOL1         0.3769
      43    C13     18.395180   23.765167   22.089748 C.3        1 MOL1         0.2972
      44    H21     18.809993   24.715575   22.448860 H          1 MOL1         0.0751
      45    O11     19.422371   22.903565   21.556929 O.3        1 MOL1        -0.3740
      46    C14     17.672433   23.027415   23.244380 C.3        1 MOL1         0.1003
      47    H22     16.859682   23.680863   23.587260 H          1 MOL1         0.0783
      48    O12     18.564183   22.769954   24.340928 O.3        1 MOL1        -0.5519
      49    H23     19.357632   23.342947   24.209082 H          1 MOL1         0.3769
      50    C15     17.049438   21.703905   22.744211 C.3        1 MOL1         0.1053
      51    H24     17.867445   21.023982   22.482516 H          1 MOL1         0.0783
      52    O13     16.269451   21.129331   23.796746 O.3        1 MOL1        -0.5519
      53    H25     16.830949   21.228713   24.597045 H          1 MOL1         0.3769
      54    C16     16.184246   21.913506   21.475562 C.3        1 MOL1         0.1018
      55    H26     15.217802   22.342653   21.771662 H          1 MOL1         0.0783
      56    C17     16.873417   22.824284   20.419910 C.3        1 MOL1         0.1043
      57    H27     17.682991   22.250332   19.950551 H          1 MOL1         0.0783
      58    O14     17.422879   24.006780   21.051511 O.3        1 MOL1        -0.3740
      59    C18     15.921831   23.288498   19.294890 C.3        1 MOL1         0.0138
      60    H28     15.589220   22.412054   18.723106 H          1 MOL1         0.0794
      61    H29     16.479829   23.935280   18.604629 H          1 MOL1         0.0794
      62    O15     14.792901   23.987369   19.827136 O.3        1 MOL1        -0.5486
      63    H30     15.154092   24.741713   20.343909 H          1 MOL1         0.3769
      64    C19     23.580976   22.833667   21.285114 C.3        1 MOL1         0.2972
      65    H31     24.634100   23.071984   21.090732 H          1 MOL1         0.0751
      66    O16     23.401101   21.446338   21.627335 O.3        1 MOL1        -0.3740
      67    C20     23.025117   23.700509   22.446216 C.3        1 MOL1         0.1003
      68    H32     23.119939   24.752617   22.146545 H          1 MOL1         0.0783
      69    O17     23.759559   23.482265   23.663472 O.3        1 MOL1        -0.5519
      70    H33     24.638522   23.904848   23.558302 H          1 MOL1         0.3769
      71    C21     21.523275   23.405276   22.677866 C.3        1 MOL1         0.1053
      72    H34     21.439997   22.376810   23.051308 H          1 MOL1         0.0783
      73    O18     21.019072   24.315747   23.661054 O.3        1 MOL1        -0.5519
      74    H35     21.713730   24.337936   24.357942 H          1 MOL1         0.3769
      75    C22     20.714574   23.508523   21.354290 C.3        1 MOL1         0.1018
      76    H36     20.619597   24.561591   21.057350 H          1 MOL1         0.0783
      77    C23     21.391080   22.726465   20.198111 C.3        1 MOL1         0.1043
      78    H37     21.296687   21.650647   20.392323 H          1 MOL1         0.0783
      79    O19     22.786386   23.108299   20.113337 O.3        1 MOL1        -0.3740
      80    C24     20.743205   23.028909   18.831543 C.3        1 MOL1         0.0138
      81    H38     20.915387   24.082254   18.572942 H          1 MOL1         0.0794
      82    H39     19.658786   22.875064   18.900918 H          1 MOL1         0.0794
      83    O20     21.291253   22.168321   17.831466 O.3        1 MOL1        -0.5486
      84    H40     22.267737   22.254606   17.898119 H          1 MOL1         0.3769
      85    C25     25.216582   17.768970   21.834260 C.3        1 MOL1         0.2972
      86    H41     25.887018   16.902372   21.894099 H          1 MOL1         0.0751
      87    O21     23.845804   17.375594   21.610522 O.3        1 MOL1        -0.3740
      88    C26     25.300943   18.596598   23.139627 C.3        1 MOL1         0.1003
      89    H42     26.331581   18.963236   23.232293 H          1 MOL1         0.0783
      90    O22     24.977668   17.803245   24.288871 O.3        1 MOL1        -0.5519
      91    H43     24.890016   18.454141   25.021371 H          1 MOL1         0.3769
      92    C27     24.363711   19.820392   23.064783 C.3        1 MOL1         0.1053
      93    H44     23.333431   19.447056   23.055586 H          1 MOL1         0.0783
      94    O23     24.569550   20.656902   24.209445 O.3        1 MOL1        -0.5519
      95    H45     24.067339   21.492364   24.047807 H          1 MOL1         0.3769
      96    C28     24.586811   20.642541   21.771302 C.3        1 MOL1         0.1018
      97    H46     25.490419   21.254196   21.895597 H          1 MOL1         0.0783
      98    C29     24.717581   19.760716   20.495706 C.3        1 MOL1         0.1043
      99    H47     23.720830   19.394199   20.215644 H          1 MOL1         0.0783
     100    O24     25.608241   18.643899   20.755468 O.3        1 MOL1        -0.3740
     101    C30     25.296278   20.543285   19.298353 C.3        1 MOL1         0.0138
     102    H48     26.298741   20.911060   19.555069 H          1 MOL1         0.0794
     103    H49     24.661390   21.414141   19.091171 H          1 MOL1         0.0794
     104    O25     25.352580   19.703069   18.144634 O.3        1 MOL1        -0.5486
     105    H50     25.833678   18.892220   18.422340 H          1 MOL1         0.3769
     106    C31     21.398771   14.077279   20.970317 C.3        1 MOL1         0.2972
     107    H51     20.994518   13.093028   20.701275 H          1 MOL1         0.0751
     108    O26     20.344316   15.023748   21.239372 O.3        1 MOL1        -0.3740
     109    C32     22.332600   13.971889   22.205910 C.3        1 MOL1         0.1003
     110    H52     23.142638   13.280233   21.940052 H          1 MOL1         0.0783
     111    O27     21.644090   13.464382   23.356001 O.3        1 MOL1        -0.5519
     112    H53     22.300245   13.524491   24.086599 H          1 MOL1         0.3769
     113    C33     22.971656   15.339674   22.544294 C.3        1 MOL1         0.1053
     114    H54     22.176958   16.007676   22.904541 H          1 MOL1         0.0783
     115    O28     23.957492   15.157990   23.567283 O.3        1 MOL1        -0.5519
     116    H55     24.264530   16.061323   23.830548 H          1 MOL1         0.3769
     117    C34     23.619512   15.989030   21.294227 C.3        1 MOL1         0.1018
     118    H56     24.551884   15.463667   21.047778 H          1 MOL1         0.0783
     119    C35     22.685315   15.949371   20.057913 C.3        1 MOL1         0.1043
     120    H57     21.857128   16.648613   20.218450 H          1 MOL1         0.0783
     121    O29     22.185662   14.600702   19.879514 O.3        1 MOL1        -0.3740
     122    C36     23.411127   16.354110   18.758872 C.3        1 MOL1         0.0138
     123    H58     24.218537   15.638371   18.554694 H          1 MOL1         0.0794
     124    H59     23.865599   17.344736   18.889230 H          1 MOL1         0.0794
     125    O30     22.480708   16.385091   17.675226 O.3        1 MOL1        -0.5486
     126    H60     22.010227   15.522600   17.696816 H          1 MOL1         0.3769
     127    C1      19.777479   18.617085   19.401716 C.3        1 MOL1        -0.2426
     128    H1      18.963770   18.823045   18.694329 H          1 MOL1         0.0959
     129    H2      20.693687   19.066490   18.995663 H          1 MOL1         0.0959
     130    H3      19.915111   17.529401   19.441975 H          1 MOL1         0.0959
     131    C2      19.446286   19.186508   20.797050 C.3        1 MOL1        -0.1410
     132    H4      18.549542   18.686193   21.184067 H          1 MOL1         0.0948
     133    H5      19.198975   20.251859   20.699804 H          1 MOL1         0.0948
     134    C3      20.623352   19.015395   21.785643 C.3        1 MOL1        -0.1435
     135    H6      20.884667   17.952681   21.873721 H          1 MOL1         0.0948
     136    H7      21.508755   19.515481   21.374121 H          1 MOL1         0.0948
     137    C4      20.329322   19.590400   23.192855 C.3        1 MOL1        -0.1435
     138    H8      19.982138   20.626945   23.110412 H          1 MOL1         0.0948
     139    H9      21.262266   19.624706   23.768830 H          1 MOL1         0.0948
     140    C5      19.301944   18.744368   23.974755 C.3        1 MOL1        -0.1435
     141    H10     18.335466   18.733989   23.453476 H          1 MOL1         0.0948
     142    H11     19.668041   17.713479   24.007241 H          1 MOL1         0.0948
     143    C6      19.097508   19.241393   25.421863 C.3        1 MOL1        -0.1500
     144    H12     18.824783   20.303821   25.404564 H          1 MOL1         0.0948
     145    H13     20.044352   19.168699   25.972814 H          1 MOL1         0.0948
     146    C7      17.999152   18.450041   26.164513 C.3        1 MOL1         0.1162
     147    H14     17.058779   18.573389   25.617611 H          1 MOL1         0.0910
     148    C8      17.809553   19.010112   27.582575 C.3        1 MOL1        -0.2491
     149    H15     16.996171   18.486791   28.099832 H          1 MOL1         0.0959
     150    H16     18.723761   18.897106   28.178412 H          1 MOL1         0.0959
     151    H17     17.552288   20.076110   27.548373 H          1 MOL1         0.0959
     152    N1      18.271565   16.969414   26.206999 N.4        1 MOL1        -0.5987
     153    H18     18.215286   16.551938   25.259145 H          1 MOL1         0.3605
     154    H19     17.573484   16.477425   26.769170 H          1 MOL1         0.3605
     155    H20     19.197571   16.754244   26.582524 H          1 MOL1         0.3605
@<TRIPOS>BOND
    1     1     2    1
    2     1     3    1
    3     1     4    1
    4     4     5    1
    5     4     6    1
    6     6     7    1
    7     4     8    1
    8     8     9    1
    9     8    10    1
   10    10    11    1
   11     8    12    1
   12    12    13    1
   13    12    14    1
   14    14    15    1
   15     1    16    1
   16    14    16    1
   17    14    17    1
   18    17    18    1
   19    17    19    1
   20    17    20    1
   21    20    21    1
   22    22    23    1
   23    22    24    1
   24    22    25    1
   25    25    26    1
   26    25    27    1
   27    27    28    1
   28    25    29    1
   29    29    30    1
   30    29    31    1
   31    31    32    1
   32     3    33    1
   33    29    33    1
   34    33    34    1
   35    33    35    1
   36    35    36    1
   37    22    37    1
   38    35    37    1
   39    35    38    1
   40    38    39    1
   41    38    40    1
   42    38    41    1
   43    41    42    1
   44    43    44    1
   45    43    45    1
   46    43    46    1
   47    46    47    1
   48    46    48    1
   49    48    49    1
   50    46    50    1
   51    50    51    1
   52    50    52    1
   53    52    53    1
   54    24    54    1
   55    50    54    1
   56    54    55    1
   57    54    56    1
   58    56    57    1
   59    43    58    1
   60    56    58    1
   61    56    59    1
   62    59    60    1
   63    59    61    1
   64    59    62    1
   65    62    63    1
   66    64    65    1
   67    64    66    1
   68    64    67    1
   69    67    68    1
   70    67    69    1
   71    69    70    1
   72    67    71    1
   73    71    72    1
   74    71    73    1
   75    73    74    1
   76    45    75    1
   77    71    75    1
   78    75    76    1
   79    75    77    1
   80    77    78    1
   81    64    79    1
   82    77    79    1
   83    77    80    1
   84    80    81    1
   85    80    82    1
   86    80    83    1
   87    83    84    1
   88    85    86    1
   89    85    87    1
   90    85    88    1
   91    88    89    1
   92    88    90    1
   93    90    91    1
   94    88    92    1
   95    92    93    1
   96    92    94    1
   97    94    95    1
   98    66    96    1
   99    92    96    1
  100    96    97    1
  101    96    98    1
  102    98    99    1
  103    85   100    1
  104    98   100    1
  105    98   101    1
  106   101   102    1
  107   101   103    1
  108   101   104    1
  109   104   105    1
  110   106   107    1
  111    12   108    1
  112   106   108    1
  113   106   109    1
  114   109   110    1
  115   109   111    1
  116   111   112    1
  117   109   113    1
  118   113   114    1
  119   113   115    1
  120   115   116    1
  121    87   117    1
  122   113   117    1
  123   117   118    1
  124   117   119    1
  125   119   120    1
  126   106   121    1
  127   119   121    1
  128   119   122    1
  129   122   123    1
  130   122   124    1
  131   122   125    1
  132   125   126    1
  133   127   128    1
  134   127   129    1
  135   127   130    1
  136   127   131    1
  137   131   132    1
  138   131   133    1
  139   131   134    1
  140   134   135    1
  141   134   136    1
  142   134   137    1
  143   137   138    1
  144   137   139    1
  145   137   140    1
  146   140   141    1
  147   140   142    1
  148   140   143    1
  149   143   144    1
  150   143   145    1
  151   143   146    1
  152   146   147    1
  153   146   148    1
  154   148   149    1
  155   148   150    1
  156   148   151    1
  157   146   152    1
  158   152   153    1
  159   152   154    1
  160   152   155    1
@<TRIPOS>SUBSTRUCTURE
       1 MOL1            1 RESIDUE      1      MOL     
       2 MOL1          155 RESIDUE      1      MOL     
@<SCITEGIC>MOL_PROPERTY
VM2 Rank
SciTegic.value.IntegerValue
8

@<SCITEGIC>MOL_PROPERTY
Conf_Id
SciTegic.value.IntegerValue
23096

@<SCITEGIC>MOL_PROPERTY
Probability
SciTegic.value.DoubleValue
1.46

@<SCITEGIC>MOL_PROPERTY
Sum Probability
SciTegic.value.DoubleValue
16.23

@<SCITEGIC>MOL_PROPERTY
Delta G
SciTegic.value.DoubleValue
0.530

@<SCITEGIC>MOL_PROPERTY
G
SciTegic.value.DoubleValue
551.828

@<SCITEGIC>MOL_PROPERTY
E
SciTegic.value.DoubleValue
343.214

@<SCITEGIC>MOL_PROPERTY
-TS
SciTegic.value.DoubleValue
208.613

@<SCITEGIC>MOL_PROPERTY
U+W
SciTegic.value.DoubleValue
206.395

@<SCITEGIC>MOL_PROPERTY
U
SciTegic.value.DoubleValue
278.690

@<SCITEGIC>MOL_PROPERTY
W
SciTegic.value.DoubleValue
-72.295

@<SCITEGIC>MOL_PROPERTY
W(PB)
SciTegic.value.DoubleValue
-78.610

@<SCITEGIC>MOL_PROPERTY
W(SA)
SciTegic.value.DoubleValue
6.315

@<SCITEGIC>MOL_PROPERTY
Valence
SciTegic.value.DoubleValue
147.393

@<SCITEGIC>MOL_PROPERTY
Coulomb
SciTegic.value.DoubleValue
158.769

@<SCITEGIC>MOL_PROPERTY
VdW
SciTegic.value.DoubleValue
-27.471

@<SCITEGIC>MOL_PROPERTY
VdW6
SciTegic.value.DoubleValue
-183.430

@<SCITEGIC>MOL_PROPERTY
VdW12
SciTegic.value.DoubleValue
155.959

@<SCITEGIC>MOL_PROPERTY
Bond
SciTegic.value.DoubleValue
4.270

@<SCITEGIC>MOL_PROPERTY
Angle
SciTegic.value.DoubleValue
10.195

@<SCITEGIC>MOL_PROPERTY
Pdih
SciTegic.value.DoubleValue
132.929

@<SCITEGIC>MOL_PROPERTY
Idih
SciTegic.value.DoubleValue
0.000

@<SCITEGIC>MOL_PROPERTY
Tether
SciTegic.value.DoubleValue
0.000

