@<TRIPOS>MOLECULE
CD_guest-s21_vm2_single.mol2 : vm2 host+ligand conformer 1
         148         153           2
SMALL
USER_CHARGES
 
@<TRIPOS>ATOM
       1    C1      16.339585   15.162110   21.018578 C.3        1 MOL1         0.2972
       2    H1      15.284722   14.966883   20.788871 H          1 MOL1         0.0751
       3    O1      16.562453   16.542687   21.370281 O.3        1 MOL1        -0.3740
       4    C2      16.796779   14.270300   22.202417 C.3        1 MOL1         0.1003
       5    H2      16.621354   13.227162   21.908881 H          1 MOL1         0.0783
       6    O2      16.049253   14.553821   23.393242 O.3        1 MOL1        -0.5519
       7    H3      16.515879   14.056791   24.102407 H          1 MOL1         0.3769
       8    C3      18.309698   14.434131   22.480469 C.3        1 MOL1         0.1053
       9    H4      18.483294   15.448444   22.865848 H          1 MOL1         0.0783
      10    O3      18.722579   13.459945   23.447224 O.3        1 MOL1        -0.5519
      11    H5      19.702941   13.551744   23.547143 H          1 MOL1         0.3769
      12    C4      19.133185   14.261050   21.181836 C.3        1 MOL1         0.1018
      13    H6      19.103382   13.205627   20.880191 H          1 MOL1         0.0783
      14    C5      18.578060   15.128389   20.023024 C.3        1 MOL1         0.1043
      15    H7      18.739983   16.188680   20.256689 H          1 MOL1         0.0783
      16    O4      17.164472   14.844463   19.876837 O.3        1 MOL1        -0.3740
      17    C6      19.255572   14.807083   18.673873 C.3        1 MOL1         0.0138
      18    H8      19.139627   13.737286   18.455363 H          1 MOL1         0.0794
      19    H9      20.329266   15.019086   18.747652 H          1 MOL1         0.0794
      20    O5      18.677301   15.593306   17.630783 O.3        1 MOL1        -0.5486
      21    H10     17.707562   15.451897   17.694497 H          1 MOL1         0.3769
      22    C7      14.703742   20.276340   21.280899 C.3        1 MOL1         0.2972
      23    H11     13.983396   21.096008   21.164743 H          1 MOL1         0.0751
      24    O6      16.030194   20.764985   21.551043 O.3        1 MOL1        -0.3740
      25    C8      14.286460   19.347690   22.450400 C.3        1 MOL1         0.1003
      26    H12     13.286599   18.958640   22.218085 H          1 MOL1         0.0783
      27    O7      14.238287   20.061370   23.694101 O.3        1 MOL1        -0.5519
      28    H13     14.112831   19.362592   24.375045 H          1 MOL1         0.3769
      29    C9      15.248522   18.142076   22.577752 C.3        1 MOL1         0.1053
      30    H14     16.228803   18.514025   22.906990 H          1 MOL1         0.0783
      31    O8      14.725346   17.218290   23.540210 O.3        1 MOL1        -0.5519
      32    H15     15.293575   16.409047   23.496070 H          1 MOL1         0.3769
      33    C10     15.432366   17.424832   21.218384 C.3        1 MOL1         0.1018
      34    H16     14.508951   16.876869   20.989488 H          1 MOL1         0.0783
      35    C11     15.737226   18.418448   20.064083 C.3        1 MOL1         0.1043
      36    H17     16.741103   18.835866   20.211091 H          1 MOL1         0.0783
      37    O9      14.755035   19.483330   20.075394 O.3        1 MOL1        -0.3740
      38    C12     15.699639   17.767197   18.664683 C.3        1 MOL1         0.0138
      39    H18     16.489761   17.009546   18.602923 H          1 MOL1         0.0794
      40    H19     15.925433   18.534576   17.912340 H          1 MOL1         0.0794
      41    O10     14.423406   17.175466   18.403678 O.3        1 MOL1        -0.5486
      42    H20     13.760991   17.891533   18.523970 H          1 MOL1         0.3769
      43    C13     18.410405   24.116176   21.539486 C.3        1 MOL1         0.2972
      44    H21     18.848071   25.122471   21.539972 H          1 MOL1         0.0751
      45    O11     19.413307   23.096338   21.352311 O.3        1 MOL1        -0.3740
      46    C14     17.670635   23.861283   22.875813 C.3        1 MOL1         0.1003
      47    H22     16.857515   24.595464   22.946101 H          1 MOL1         0.0783
      48    O12     18.546395   24.021145   23.999858 O.3        1 MOL1        -0.5519
      49    H23     18.042973   23.651036   24.759649 H          1 MOL1         0.3769
      50    C15     17.039608   22.451830   22.890971 C.3        1 MOL1         0.1053
      51    H24     17.854495   21.718227   22.911578 H          1 MOL1         0.0783
      52    O13     16.219477   22.302314   24.056347 O.3        1 MOL1        -0.5519
      53    H25     15.698225   21.471275   23.929241 H          1 MOL1         0.3769
      54    C16     16.186096   22.193474   21.625194 C.3        1 MOL1         0.1018
      55    H26     15.224198   22.709159   21.745871 H          1 MOL1         0.0783
      56    C17     16.875459   22.658982   20.310863 C.3        1 MOL1         0.1043
      57    H27     17.674260   21.945314   20.070284 H          1 MOL1         0.0783
      58    O14     17.439419   23.984243   20.480388 O.3        1 MOL1        -0.3740
      59    C18     15.916430   22.713668   19.101103 C.3        1 MOL1         0.0138
      60    H28     15.546464   21.702619   18.887706 H          1 MOL1         0.0794
      61    H29     16.480317   23.047241   18.219677 H          1 MOL1         0.0794
      62    O15     14.820446   23.598363   19.352111 O.3        1 MOL1        -0.5486
      63    H30     15.217846   24.470370   19.571835 H          1 MOL1         0.3769
      64    C19     23.465918   22.566779   20.637503 C.3        1 MOL1         0.2972
      65    H31     24.512373   22.660967   20.320471 H          1 MOL1         0.0751
      66    O16     23.171132   21.227390   21.081167 O.3        1 MOL1        -0.3740
      67    C20     23.136005   23.579948   21.768533 C.3        1 MOL1         0.1003
      68    H32     23.304477   24.584507   21.360134 H          1 MOL1         0.0783
      69    O17     24.004309   23.390151   22.896955 O.3        1 MOL1        -0.5519
      70    H33     23.765778   22.516868   23.297178 H          1 MOL1         0.3769
      71    C21     21.641533   23.482203   22.177774 C.3        1 MOL1         0.1053
      72    H34     21.485052   22.509790   22.665091 H          1 MOL1         0.0783
      73    O18     21.298789   24.541300   23.080450 O.3        1 MOL1        -0.5519
      74    H35     20.398525   24.330942   23.431632 H          1 MOL1         0.3769
      75    C22     20.712589   23.558249   20.937119 C.3        1 MOL1         0.1018
      76    H36     20.680239   24.592939   20.570747 H          1 MOL1         0.0783
      77    C23     21.178905   22.639348   19.778060 C.3        1 MOL1         0.1043
      78    H37     20.997586   21.596535   20.065490 H          1 MOL1         0.0783
      79    O19     22.590615   22.850632   19.527085 O.3        1 MOL1        -0.3740
      80    C24     20.425328   22.901139   18.455444 C.3        1 MOL1         0.0138
      81    H38     19.351323   22.742788   18.615465 H          1 MOL1         0.0794
      82    H39     20.758677   22.166437   17.710242 H          1 MOL1         0.0794
      83    O20     20.662099   24.230656   17.983086 O.3        1 MOL1        -0.5486
      84    H40     21.639066   24.334572   17.947618 H          1 MOL1         0.3769
      85    C25     24.984297   17.682926   22.209304 C.3        1 MOL1         0.2972
      86    H41     25.661671   16.888384   22.547106 H          1 MOL1         0.0751
      87    O21     23.761189   17.145400   21.663761 O.3        1 MOL1        -0.3740
      88    C26     24.637607   18.632465   23.385278 C.3        1 MOL1         0.1003
      89    H42     25.572747   19.103481   23.714612 H          1 MOL1         0.0783
      90    O22     24.085703   17.883450   24.479128 O.3        1 MOL1        -0.5519
      91    H43     23.405688   18.452770   24.924248 H          1 MOL1         0.3769
      92    C27     23.686142   19.760759   22.908640 C.3        1 MOL1         0.1053
      93    H44     22.726281   19.309168   22.629969 H          1 MOL1         0.0783
      94    O23     23.487717   20.720338   23.955855 O.3        1 MOL1        -0.5519
      95    H45     22.846545   20.309032   24.593755 H          1 MOL1         0.3769
      96    C28     24.257411   20.477761   21.657838 C.3        1 MOL1         0.1018
      97    H46     25.081599   21.130057   21.975184 H          1 MOL1         0.0783
      98    C29     24.761084   19.483925   20.572758 C.3        1 MOL1         0.1043
      99    H47     23.886147   19.004060   20.113856 H          1 MOL1         0.0783
     100    O24     25.610010   18.478097   21.180273 O.3        1 MOL1        -0.3740
     101    C30     25.567721   20.155509   19.439077 C.3        1 MOL1         0.0138
     102    H48     24.905761   20.828954   18.878800 H          1 MOL1         0.0794
     103    H49     25.907273   19.378780   18.740803 H          1 MOL1         0.0794
     104    O25     26.686871   20.880338   19.957357 O.3        1 MOL1        -0.5486
     105    H50     27.222474   20.232101   20.466596 H          1 MOL1         0.3769
     106    C31     21.517079   13.719275   21.322023 C.3        1 MOL1         0.2972
     107    H51     21.113278   12.710247   21.172514 H          1 MOL1         0.0751
     108    O26     20.470876   14.701371   21.479382 O.3        1 MOL1        -0.3740
     109    C32     22.415800   13.743368   22.580697 C.3        1 MOL1         0.1003
     110    H52     23.246271   13.047106   22.405270 H          1 MOL1         0.0783
     111    O27     21.687382   13.327583   23.744171 O.3        1 MOL1        -0.5519
     112    H53     22.290175   13.522269   24.496660 H          1 MOL1         0.3769
     113    C33     23.013264   15.149942   22.808412 C.3        1 MOL1         0.1053
     114    H54     22.189877   15.819603   23.089124 H          1 MOL1         0.0783
     115    O28     23.966416   15.080478   23.874903 O.3        1 MOL1        -0.5519
     116    H55     24.094072   16.010565   24.187461 H          1 MOL1         0.3769
     117    C34     23.678666   15.714092   21.521947 C.3        1 MOL1         0.1018
     118    H56     24.670429   15.262220   21.388189 H          1 MOL1         0.0783
     119    C35     22.835161   15.467425   20.240025 C.3        1 MOL1         0.1043
     120    H57     21.989153   16.165374   20.246326 H          1 MOL1         0.0783
     121    O29     22.338773   14.106130   20.202870 O.3        1 MOL1        -0.3740
     122    C36     23.633897   15.713344   18.941058 C.3        1 MOL1         0.0138
     123    H58     24.003826   16.747423   18.938139 H          1 MOL1         0.0794
     124    H59     22.956374   15.603010   18.083819 H          1 MOL1         0.0794
     125    O30     24.726874   14.797101   18.829430 O.3        1 MOL1        -0.5486
     126    H60     24.339609   13.898919   18.929175 H          1 MOL1         0.3769
     127    C1      20.751440   18.475182   25.302280 C.2        1 MOL1         0.6145
     128    O1      20.076074   18.048432   26.217603 O.co2      1 MOL1        -0.6735
     129    O2      21.779744   19.109334   25.455546 O.co2      1 MOL1        -0.6735
     130    C2      20.277912   18.218633   23.874867 C.3        1 MOL1        -0.1985
     131    H1      19.509603   17.437076   23.900226 H          1 MOL1         0.0740
     132    H2      21.125522   17.821239   23.309094 H          1 MOL1         0.0740
     133    C3      19.717177   19.493925   23.196926 C.3        1 MOL1        -0.1882
     134    H3      18.897454   19.882350   23.815699 H          1 MOL1         0.0742
     135    H4      20.489330   20.274938   23.180749 H          1 MOL1         0.0742
     136    C4      19.192802   19.256206   21.762972 C.3        1 MOL1        -0.1880
     137    H5      18.735353   20.186884   21.406404 H          1 MOL1         0.0742
     138    H6      18.399180   18.500139   21.784629 H          1 MOL1         0.0742
     139    C5      20.289935   18.824998   20.766528 C.3        1 MOL1        -0.1880
     140    H7      21.167499   19.470324   20.887718 H          1 MOL1         0.0742
     141    H8      20.613765   17.802184   20.994031 H          1 MOL1         0.0742
     142    C6      19.797208   18.906175   19.306332 C.3        1 MOL1        -0.1856
     143    H9      19.427932   19.918578   19.096236 H          1 MOL1         0.0742
     144    H10     18.950811   18.223228   19.157353 H          1 MOL1         0.0742
     145    C7      20.919121   18.560425   18.308634 C.3        1 MOL1        -0.2871
     146    H11     20.560077   18.660740   17.276443 H          1 MOL1         0.0754
     147    H12     21.256254   17.526667   18.445985 H          1 MOL1         0.0754
     148    H13     21.780796   19.228298   18.437683 H          1 MOL1         0.0754
@<TRIPOS>BOND
    1     1     2    1
    2     1     3    1
    3     1     4    1
    4     4     5    1
    5     4     6    1
    6     6     7    1
    7     4     8    1
    8     8     9    1
    9     8    10    1
   10    10    11    1
   11     8    12    1
   12    12    13    1
   13    12    14    1
   14    14    15    1
   15     1    16    1
   16    14    16    1
   17    14    17    1
   18    17    18    1
   19    17    19    1
   20    17    20    1
   21    20    21    1
   22    22    23    1
   23    22    24    1
   24    22    25    1
   25    25    26    1
   26    25    27    1
   27    27    28    1
   28    25    29    1
   29    29    30    1
   30    29    31    1
   31    31    32    1
   32     3    33    1
   33    29    33    1
   34    33    34    1
   35    33    35    1
   36    35    36    1
   37    22    37    1
   38    35    37    1
   39    35    38    1
   40    38    39    1
   41    38    40    1
   42    38    41    1
   43    41    42    1
   44    43    44    1
   45    43    45    1
   46    43    46    1
   47    46    47    1
   48    46    48    1
   49    48    49    1
   50    46    50    1
   51    50    51    1
   52    50    52    1
   53    52    53    1
   54    24    54    1
   55    50    54    1
   56    54    55    1
   57    54    56    1
   58    56    57    1
   59    43    58    1
   60    56    58    1
   61    56    59    1
   62    59    60    1
   63    59    61    1
   64    59    62    1
   65    62    63    1
   66    64    65    1
   67    64    66    1
   68    64    67    1
   69    67    68    1
   70    67    69    1
   71    69    70    1
   72    67    71    1
   73    71    72    1
   74    71    73    1
   75    73    74    1
   76    45    75    1
   77    71    75    1
   78    75    76    1
   79    75    77    1
   80    77    78    1
   81    64    79    1
   82    77    79    1
   83    77    80    1
   84    80    81    1
   85    80    82    1
   86    80    83    1
   87    83    84    1
   88    85    86    1
   89    85    87    1
   90    85    88    1
   91    88    89    1
   92    88    90    1
   93    90    91    1
   94    88    92    1
   95    92    93    1
   96    92    94    1
   97    94    95    1
   98    66    96    1
   99    92    96    1
  100    96    97    1
  101    96    98    1
  102    98    99    1
  103    85   100    1
  104    98   100    1
  105    98   101    1
  106   101   102    1
  107   101   103    1
  108   101   104    1
  109   104   105    1
  110   106   107    1
  111    12   108    1
  112   106   108    1
  113   106   109    1
  114   109   110    1
  115   109   111    1
  116   111   112    1
  117   109   113    1
  118   113   114    1
  119   113   115    1
  120   115   116    1
  121    87   117    1
  122   113   117    1
  123   117   118    1
  124   117   119    1
  125   119   120    1
  126   106   121    1
  127   119   121    1
  128   119   122    1
  129   122   123    1
  130   122   124    1
  131   122   125    1
  132   125   126    1
  133   127   128    1
  134   127   129    2
  135   127   130    1
  136   130   131    1
  137   130   132    1
  138   130   133    1
  139   133   134    1
  140   133   135    1
  141   133   136    1
  142   136   137    1
  143   136   138    1
  144   136   139    1
  145   139   140    1
  146   139   141    1
  147   139   142    1
  148   142   143    1
  149   142   144    1
  150   142   145    1
  151   145   146    1
  152   145   147    1
  153   145   148    1
@<TRIPOS>SUBSTRUCTURE
       1 MOL1            1 RESIDUE      1      MOL     
       2 MOL1          148 RESIDUE      1      MOL     
@<SCITEGIC>MOL_PROPERTY
VM2 Rank
SciTegic.value.IntegerValue
1

@<SCITEGIC>MOL_PROPERTY
Conf_Id
SciTegic.value.IntegerValue
25393

@<SCITEGIC>MOL_PROPERTY
Probability
SciTegic.value.DoubleValue
3.94

@<SCITEGIC>MOL_PROPERTY
Sum Probability
SciTegic.value.DoubleValue
3.94

@<SCITEGIC>MOL_PROPERTY
Delta G
SciTegic.value.DoubleValue
0.000

@<SCITEGIC>MOL_PROPERTY
G
SciTegic.value.DoubleValue
497.019

@<SCITEGIC>MOL_PROPERTY
E
SciTegic.value.DoubleValue
304.927

@<SCITEGIC>MOL_PROPERTY
-TS
SciTegic.value.DoubleValue
192.092

@<SCITEGIC>MOL_PROPERTY
U+W
SciTegic.value.DoubleValue
174.368

@<SCITEGIC>MOL_PROPERTY
U
SciTegic.value.DoubleValue
247.971

@<SCITEGIC>MOL_PROPERTY
W
SciTegic.value.DoubleValue
-73.603

@<SCITEGIC>MOL_PROPERTY
W(PB)
SciTegic.value.DoubleValue
-79.747

@<SCITEGIC>MOL_PROPERTY
W(SA)
SciTegic.value.DoubleValue
6.144

@<SCITEGIC>MOL_PROPERTY
Valence
SciTegic.value.DoubleValue
151.083

@<SCITEGIC>MOL_PROPERTY
Coulomb
SciTegic.value.DoubleValue
123.845

@<SCITEGIC>MOL_PROPERTY
VdW
SciTegic.value.DoubleValue
-26.957

@<SCITEGIC>MOL_PROPERTY
VdW6
SciTegic.value.DoubleValue
-181.950

@<SCITEGIC>MOL_PROPERTY
VdW12
SciTegic.value.DoubleValue
154.993

@<SCITEGIC>MOL_PROPERTY
Bond
SciTegic.value.DoubleValue
4.459

@<SCITEGIC>MOL_PROPERTY
Angle
SciTegic.value.DoubleValue
11.005

@<SCITEGIC>MOL_PROPERTY
Pdih
SciTegic.value.DoubleValue
135.619

@<SCITEGIC>MOL_PROPERTY
Idih
SciTegic.value.DoubleValue
0.000

@<SCITEGIC>MOL_PROPERTY
Tether
SciTegic.value.DoubleValue
0.000

