@<TRIPOS>MOLECULE
CD_guest-s9_vm2_single.mol2 : vm2 host+ligand conformer 1
         146         151           2
SMALL
USER_CHARGES
 
@<TRIPOS>ATOM
       1    C1      16.113570   14.987941   20.570852 C.3        1 MOL1         0.2972
       2    H1      15.056343   14.869138   20.300934 H          1 MOL1         0.0751
       3    O1      16.430758   16.360605   20.887021 O.3        1 MOL1        -0.3740
       4    C2      16.507657   14.068437   21.756524 C.3        1 MOL1         0.1003
       5    H2      16.408202   13.030684   21.411086 H          1 MOL1         0.0783
       6    O2      15.662673   14.261480   22.901393 O.3        1 MOL1        -0.5519
       7    H3      14.786919   13.871298   22.692518 H          1 MOL1         0.3769
       8    C3      17.990797   14.297655   22.135418 C.3        1 MOL1         0.1053
       9    H4      18.088976   15.318700   22.528498 H          1 MOL1         0.0783
      10    O3      18.355505   13.354716   23.149000 O.3        1 MOL1        -0.5519
      11    H5      17.582742   13.331909   23.758558 H          1 MOL1         0.3769
      12    C4      18.925193   14.166528   20.898427 C.3        1 MOL1         0.1018
      13    H6      19.084521   13.104221   20.669817 H          1 MOL1         0.0783
      14    C5      18.368334   14.868410   19.627296 C.3        1 MOL1         0.1043
      15    H7      18.526687   15.949812   19.720082 H          1 MOL1         0.0783
      16    O4      16.954044   14.587995   19.469061 O.3        1 MOL1        -0.3740
      17    C6      19.088748   14.391110   18.349698 C.3        1 MOL1         0.0138
      18    H8      18.874097   13.326181   18.188192 H          1 MOL1         0.0794
      19    H9      20.173566   14.496934   18.485611 H          1 MOL1         0.0794
      20    O5      18.659976   15.166086   17.228600 O.3        1 MOL1        -0.5486
      21    H10     17.676978   15.135871   17.236021 H          1 MOL1         0.3769
      22    C7      15.025364   20.061936   21.956828 C.3        1 MOL1         0.2972
      23    H11     14.449456   20.934625   22.288838 H          1 MOL1         0.0751
      24    O6      16.262690   20.452154   21.324283 O.3        1 MOL1        -0.3740
      25    C8      15.354771   19.151506   23.165871 C.3        1 MOL1         0.1003
      26    H12     14.400019   18.860527   23.622439 H          1 MOL1         0.0783
      27    O7      16.146847   19.863503   24.135205 O.3        1 MOL1        -0.5519
      28    H13     15.933746   20.821554   24.030911 H          1 MOL1         0.3769
      29    C9      16.083033   17.861929   22.710813 C.3        1 MOL1         0.1053
      30    H14     17.091115   18.144145   22.389357 H          1 MOL1         0.0783
      31    O8      16.162261   16.950778   23.812262 O.3        1 MOL1        -0.5519
      32    H15     16.156205   16.035655   23.444293 H          1 MOL1         0.3769
      33    C10     15.405645   17.168102   21.500799 C.3        1 MOL1         0.1018
      34    H16     14.559014   16.566912   21.857640 H          1 MOL1         0.0783
      35    C11     14.932253   18.168601   20.410365 C.3        1 MOL1         0.1043
      36    H17     15.816398   18.528161   19.867982 H          1 MOL1         0.0783
      37    O9      14.249317   19.291555   21.015808 O.3        1 MOL1        -0.3740
      38    C12     13.978456   17.534010   19.373873 C.3        1 MOL1         0.0138
      39    H18     14.520528   16.757282   18.818334 H          1 MOL1         0.0794
      40    H19     13.679490   18.304275   18.650353 H          1 MOL1         0.0794
      41    O10     12.824953   16.972227   20.006580 O.3        1 MOL1        -0.5486
      42    H20     12.399205   17.705220   20.504783 H          1 MOL1         0.3769
      43    C13     18.474551   23.946983   20.798238 C.3        1 MOL1         0.2972
      44    H21     18.828784   24.948667   20.521947 H          1 MOL1         0.0751
      45    O11     19.559105   23.093264   21.212499 O.3        1 MOL1        -0.3740
      46    C14     17.431276   24.017816   21.943347 C.3        1 MOL1         0.1003
      47    H22     16.581854   24.605624   21.571646 H          1 MOL1         0.0783
      48    O12     17.967260   24.662825   23.108973 O.3        1 MOL1        -0.5519
      49    H23     18.797420   24.183644   23.359920 H          1 MOL1         0.3769
      50    C15     16.911205   22.602333   22.296610 C.3        1 MOL1         0.1053
      51    H24     17.748728   22.034482   22.720983 H          1 MOL1         0.0783
      52    O13     15.870400   22.723314   23.272584 O.3        1 MOL1        -0.5519
      53    H25     16.179822   23.428443   23.885821 H          1 MOL1         0.3769
      54    C16     16.408199   21.855938   21.025801 C.3        1 MOL1         0.1018
      55    H26     15.455464   22.290487   20.694699 H          1 MOL1         0.0783
      56    C17     17.425899   21.944229   19.857939 C.3        1 MOL1         0.1043
      57    H27     18.296073   21.318953   20.096556 H          1 MOL1         0.0783
      58    O14     17.829233   23.323058   19.669036 O.3        1 MOL1        -0.3740
      59    C18     16.825699   21.450604   18.525422 C.3        1 MOL1         0.0138
      60    H28     16.002514   22.114766   18.229695 H          1 MOL1         0.0794
      61    H29     16.409536   20.444481   18.664078 H          1 MOL1         0.0794
      62    O15     17.837316   21.423110   17.516960 O.3        1 MOL1        -0.5486
      63    H30     18.244590   22.317805   17.515536 H          1 MOL1         0.3769
      64    C19     23.586420   22.896879   21.916016 C.3        1 MOL1         0.2972
      65    H31     24.657905   23.033000   22.111300 H          1 MOL1         0.0751
      66    O16     23.271430   21.536144   21.548004 O.3        1 MOL1        -0.3740
      67    C20     22.756930   23.277711   23.167208 C.3        1 MOL1         0.1003
      68    H32     22.909617   24.348783   23.353624 H          1 MOL1         0.0783
      69    O17     23.170504   22.534391   24.324238 O.3        1 MOL1        -0.5519
      70    H33     23.734711   21.785460   24.008201 H          1 MOL1         0.3769
      71    C21     21.255212   23.046896   22.894780 C.3        1 MOL1         0.1053
      72    H34     21.113037   21.970055   22.768036 H          1 MOL1         0.0783
      73    O18     20.489232   23.502796   24.013055 O.3        1 MOL1        -0.5519
      74    H35     20.986670   23.186427   24.800879 H          1 MOL1         0.3769
      75    C22     20.783824   23.747817   21.595929 C.3        1 MOL1         0.1018
      76    H36     20.632219   24.814133   21.810846 H          1 MOL1         0.0783
      77    C23     21.777071   23.573321   20.408785 C.3        1 MOL1         0.1043
      78    H37     21.660839   22.555399   20.014065 H          1 MOL1         0.0783
      79    O19     23.146548   23.762775   20.848442 O.3        1 MOL1        -0.3740
      80    C24     21.515721   24.552143   19.242710 C.3        1 MOL1         0.0138
      81    H38     20.527974   24.341119   18.812051 H          1 MOL1         0.0794
      82    H39     22.260241   24.371047   18.455828 H          1 MOL1         0.0794
      83    O20     21.580865   25.911068   19.684337 O.3        1 MOL1        -0.5486
      84    H40     22.475753   26.031959   20.073259 H          1 MOL1         0.3769
      85    C25     24.904814   17.777927   20.954083 C.3        1 MOL1         0.2972
      86    H41     25.540506   16.916169   20.712974 H          1 MOL1         0.0751
      87    O21     23.529747   17.379340   21.138252 O.3        1 MOL1        -0.3740
      88    C26     25.423356   18.514356   22.220293 C.3        1 MOL1         0.1003
      89    H42     26.436602   18.869270   21.990932 H          1 MOL1         0.0783
      90    O22     25.485731   17.649145   23.363997 O.3        1 MOL1        -0.5519
      91    H43     24.556013   17.375155   23.568312 H          1 MOL1         0.3769
      92    C27     24.548372   19.750822   22.533453 C.3        1 MOL1         0.1053
      93    H44     23.552255   19.394652   22.829250 H          1 MOL1         0.0783
      94    O23     25.138626   20.484670   23.609997 O.3        1 MOL1        -0.5519
      95    H45     25.434267   19.801909   24.253950 H          1 MOL1         0.3769
      96    C28     24.389126   20.664863   21.291224 C.3        1 MOL1         0.1018
      97    H46     25.318138   21.227460   21.128872 H          1 MOL1         0.0783
      98    C29     24.051574   19.868508   20.001158 C.3        1 MOL1         0.1043
      99    H47     23.010962   19.524282   20.064044 H          1 MOL1         0.0783
     100    O24     24.937931   18.728543   19.869354 O.3        1 MOL1        -0.3740
     101    C30     24.190986   20.720242   18.719710 C.3        1 MOL1         0.0138
     102    H48     23.518272   21.585196   18.787470 H          1 MOL1         0.0794
     103    H49     23.869397   20.118606   17.859137 H          1 MOL1         0.0794
     104    O25     25.540188   21.160450   18.539633 O.3        1 MOL1        -0.5486
     105    H50     26.096411   20.349990   18.564648 H          1 MOL1         0.3769
     106    C31     21.154746   14.059580   21.917324 C.3        1 MOL1         0.2972
     107    H51     20.764586   13.075460   22.206846 H          1 MOL1         0.0751
     108    O26     20.169911   14.830439   21.199249 O.3        1 MOL1        -0.3740
     109    C32     21.610952   14.850767   23.172288 C.3        1 MOL1         0.1003
     110    H52     22.392313   14.255393   23.662391 H          1 MOL1         0.0783
     111    O27     20.532200   15.064270   24.095994 O.3        1 MOL1        -0.5519
     112    H53     19.849213   14.376728   23.908304 H          1 MOL1         0.3769
     113    C33     22.219383   16.212474   22.773252 C.3        1 MOL1         0.1053
     114    H54     21.412386   16.824204   22.356849 H          1 MOL1         0.0783
     115    O28     22.753606   16.842271   23.941520 O.3        1 MOL1        -0.5519
     116    H55     22.099621   16.639049   24.647812 H          1 MOL1         0.3769
     117    C34     23.311292   16.063021   21.687125 C.3        1 MOL1         0.1018
     118    H56     24.217652   15.655794   22.154289 H          1 MOL1         0.0783
     119    C35     22.859510   15.135965   20.523385 C.3        1 MOL1         0.1043
     120    H57     22.094536   15.663232   19.937817 H          1 MOL1         0.0783
     121    O29     22.304550   13.906814   21.057052 O.3        1 MOL1        -0.3740
     122    C36     24.004682   14.755288   19.558520 C.3        1 MOL1         0.0138
     123    H58     24.357096   15.660613   19.046727 H          1 MOL1         0.0794
     124    H59     23.608146   14.079765   18.788716 H          1 MOL1         0.0794
     125    O30     25.085966   14.131570   20.257248 O.3        1 MOL1        -0.5486
     126    H60     24.706618   13.343147   20.705625 H          1 MOL1         0.3769
     127    C1      19.649767   18.469444   20.700799 C.3        1 MOL1        -0.2224
     128    H1      18.641827   18.805041   20.422709 H          1 MOL1         0.1052
     129    H2      20.246617   18.401400   19.782151 H          1 MOL1         0.1052
     130    H3      19.565023   17.459934   21.117977 H          1 MOL1         0.1052
     131    C2      20.303794   19.444241   21.705677 C.3        1 MOL1        -0.1209
     132    H4      20.388848   20.431137   21.231347 H          1 MOL1         0.1041
     133    H5      21.329418   19.122433   21.931517 H          1 MOL1         0.1041
     134    C3      19.494510   19.575318   23.016737 C.3        1 MOL1        -0.1274
     135    H6      19.916260   20.373946   23.638335 H          1 MOL1         0.1041
     136    H7      18.471711   19.881910   22.774368 H          1 MOL1         0.1041
     137    C4      19.468930   18.276908   23.845607 C.3        1 MOL1         0.0313
     138    H8      20.475518   18.054063   24.207207 H          1 MOL1         0.1015
     139    H9      19.134714   17.439306   23.228497 H          1 MOL1         0.1015
     140    N1      18.544885   18.351985   25.044029 N.4        1 MOL1        -0.4809
     141    H10     17.558295   18.471825   24.723933 H          1 MOL1         0.3726
     142    H11     18.750004   19.185166   25.613024 H          1 MOL1         0.3726
     143    C5      18.675111   17.081625   25.871162 C.3        1 MOL1        -0.0677
     144    H12     18.401661   16.225586   25.249899 H          1 MOL1         0.1026
     145    H13     19.707491   16.974725   26.210143 H          1 MOL1         0.1026
     146    H14     18.003598   17.142416   26.729901 H          1 MOL1         0.1026
@<TRIPOS>BOND
    1     1     2    1
    2     1     3    1
    3     1     4    1
    4     4     5    1
    5     4     6    1
    6     6     7    1
    7     4     8    1
    8     8     9    1
    9     8    10    1
   10    10    11    1
   11     8    12    1
   12    12    13    1
   13    12    14    1
   14    14    15    1
   15     1    16    1
   16    14    16    1
   17    14    17    1
   18    17    18    1
   19    17    19    1
   20    17    20    1
   21    20    21    1
   22    22    23    1
   23    22    24    1
   24    22    25    1
   25    25    26    1
   26    25    27    1
   27    27    28    1
   28    25    29    1
   29    29    30    1
   30    29    31    1
   31    31    32    1
   32     3    33    1
   33    29    33    1
   34    33    34    1
   35    33    35    1
   36    35    36    1
   37    22    37    1
   38    35    37    1
   39    35    38    1
   40    38    39    1
   41    38    40    1
   42    38    41    1
   43    41    42    1
   44    43    44    1
   45    43    45    1
   46    43    46    1
   47    46    47    1
   48    46    48    1
   49    48    49    1
   50    46    50    1
   51    50    51    1
   52    50    52    1
   53    52    53    1
   54    24    54    1
   55    50    54    1
   56    54    55    1
   57    54    56    1
   58    56    57    1
   59    43    58    1
   60    56    58    1
   61    56    59    1
   62    59    60    1
   63    59    61    1
   64    59    62    1
   65    62    63    1
   66    64    65    1
   67    64    66    1
   68    64    67    1
   69    67    68    1
   70    67    69    1
   71    69    70    1
   72    67    71    1
   73    71    72    1
   74    71    73    1
   75    73    74    1
   76    45    75    1
   77    71    75    1
   78    75    76    1
   79    75    77    1
   80    77    78    1
   81    64    79    1
   82    77    79    1
   83    77    80    1
   84    80    81    1
   85    80    82    1
   86    80    83    1
   87    83    84    1
   88    85    86    1
   89    85    87    1
   90    85    88    1
   91    88    89    1
   92    88    90    1
   93    90    91    1
   94    88    92    1
   95    92    93    1
   96    92    94    1
   97    94    95    1
   98    66    96    1
   99    92    96    1
  100    96    97    1
  101    96    98    1
  102    98    99    1
  103    85   100    1
  104    98   100    1
  105    98   101    1
  106   101   102    1
  107   101   103    1
  108   101   104    1
  109   104   105    1
  110   106   107    1
  111    12   108    1
  112   106   108    1
  113   106   109    1
  114   109   110    1
  115   109   111    1
  116   111   112    1
  117   109   113    1
  118   113   114    1
  119   113   115    1
  120   115   116    1
  121    87   117    1
  122   113   117    1
  123   117   118    1
  124   117   119    1
  125   119   120    1
  126   106   121    1
  127   119   121    1
  128   119   122    1
  129   122   123    1
  130   122   124    1
  131   122   125    1
  132   125   126    1
  133   127   128    1
  134   127   129    1
  135   127   130    1
  136   127   131    1
  137   131   132    1
  138   131   133    1
  139   131   134    1
  140   134   135    1
  141   134   136    1
  142   134   137    1
  143   137   138    1
  144   137   139    1
  145   137   140    1
  146   140   141    1
  147   140   142    1
  148   140   143    1
  149   143   144    1
  150   143   145    1
  151   143   146    1
@<TRIPOS>SUBSTRUCTURE
       1 MOL1            1 RESIDUE      1      MOL     
       2 MOL1          146 RESIDUE      1      MOL     
@<SCITEGIC>MOL_PROPERTY
VM2 Rank
SciTegic.value.IntegerValue
1

@<SCITEGIC>MOL_PROPERTY
Conf_Id
SciTegic.value.IntegerValue
14309

@<SCITEGIC>MOL_PROPERTY
Probability
SciTegic.value.DoubleValue
1.89

@<SCITEGIC>MOL_PROPERTY
Sum Probability
SciTegic.value.DoubleValue
1.89

@<SCITEGIC>MOL_PROPERTY
Delta G
SciTegic.value.DoubleValue
0.000

@<SCITEGIC>MOL_PROPERTY
G
SciTegic.value.DoubleValue
577.469

@<SCITEGIC>MOL_PROPERTY
E
SciTegic.value.DoubleValue
384.272

@<SCITEGIC>MOL_PROPERTY
-TS
SciTegic.value.DoubleValue
193.198

@<SCITEGIC>MOL_PROPERTY
U+W
SciTegic.value.DoubleValue
255.501

@<SCITEGIC>MOL_PROPERTY
U
SciTegic.value.DoubleValue
328.567

@<SCITEGIC>MOL_PROPERTY
W
SciTegic.value.DoubleValue
-73.066

@<SCITEGIC>MOL_PROPERTY
W(PB)
SciTegic.value.DoubleValue
-79.275

@<SCITEGIC>MOL_PROPERTY
W(SA)
SciTegic.value.DoubleValue
6.209

@<SCITEGIC>MOL_PROPERTY
Valence
SciTegic.value.DoubleValue
145.395

@<SCITEGIC>MOL_PROPERTY
Coulomb
SciTegic.value.DoubleValue
206.470

@<SCITEGIC>MOL_PROPERTY
VdW
SciTegic.value.DoubleValue
-23.298

@<SCITEGIC>MOL_PROPERTY
VdW6
SciTegic.value.DoubleValue
-175.173

@<SCITEGIC>MOL_PROPERTY
VdW12
SciTegic.value.DoubleValue
151.875

@<SCITEGIC>MOL_PROPERTY
Bond
SciTegic.value.DoubleValue
4.528

@<SCITEGIC>MOL_PROPERTY
Angle
SciTegic.value.DoubleValue
10.309

@<SCITEGIC>MOL_PROPERTY
Pdih
SciTegic.value.DoubleValue
130.558

@<SCITEGIC>MOL_PROPERTY
Idih
SciTegic.value.DoubleValue
0.000

@<SCITEGIC>MOL_PROPERTY
Tether
SciTegic.value.DoubleValue
0.000

