@<TRIPOS>MOLECULE
CD_guest-8_vm2_single.mol2 : vm2 host+ligand conformer 1
         151         156           2
SMALL
USER_CHARGES
 
@<TRIPOS>ATOM
       1    C1      16.213723   15.052578   21.253581 C.3        1 MOL1         0.2972
       2    H1      15.130376   14.897385   21.175456 H          1 MOL1         0.0751
       3    O1      16.551836   16.453162   21.296889 O.3        1 MOL1        -0.3740
       4    C2      16.753282   14.366830   22.533671 C.3        1 MOL1         0.1003
       5    H2      16.538301   13.294034   22.444072 H          1 MOL1         0.0783
       6    O2      16.113042   14.876817   23.711191 O.3        1 MOL1        -0.5519
       7    H3      16.643032   14.514530   24.456575 H          1 MOL1         0.3769
       8    C3      18.285317   14.533766   22.650920 C.3        1 MOL1         0.1053
       9    H4      18.501689   15.593012   22.841095 H          1 MOL1         0.0783
      10    O3      18.768714   13.735416   23.738067 O.3        1 MOL1        -0.5519
      11    H5      19.756153   13.738318   23.676140 H          1 MOL1         0.3769
      12    C4      19.002679   14.115974   21.343641 C.3        1 MOL1         0.1018
      13    H6      19.020937   13.019315   21.292586 H          1 MOL1         0.0783
      14    C5      18.324094   14.688183   20.068119 C.3        1 MOL1         0.1043
      15    H7      18.530480   15.765413   20.019471 H          1 MOL1         0.0783
      16    O4      16.892774   14.464147   20.124349 O.3        1 MOL1        -0.3740
      17    C6      18.844130   14.050344   18.760929 C.3        1 MOL1         0.0138
      18    H8      19.913924   14.271163   18.652710 H          1 MOL1         0.0794
      19    H9      18.326895   14.516185   17.911516 H          1 MOL1         0.0794
      20    O5      18.628214   12.636006   18.757482 O.3        1 MOL1        -0.5486
      21    H10     17.664805   12.507012   18.905025 H          1 MOL1         0.3769
      22    C7      14.924639   20.262312   20.878348 C.3        1 MOL1         0.2972
      23    H11     14.274796   21.114535   20.641268 H          1 MOL1         0.0751
      24    O6      16.234327   20.695991   21.291039 O.3        1 MOL1        -0.3740
      25    C8      14.303810   19.393238   22.004462 C.3        1 MOL1         0.1003
      26    H12     13.322946   19.051991   21.648714 H          1 MOL1         0.0783
      27    O7      14.131216   20.141065   23.215660 O.3        1 MOL1        -0.5519
      28    H13     13.842428   19.475321   23.879836 H          1 MOL1         0.3769
      29    C9      15.167794   18.141360   22.287479 C.3        1 MOL1         0.1053
      30    H14     16.116574   18.472536   22.732478 H          1 MOL1         0.0783
      31    O8      14.474432   17.281630   23.200268 O.3        1 MOL1        -0.5519
      32    H15     15.077989   16.519044   23.385115 H          1 MOL1         0.3769
      33    C10     15.489965   17.372905   20.982167 C.3        1 MOL1         0.1018
      34    H16     14.585913   16.857600   20.631715 H          1 MOL1         0.0783
      35    C11     16.000646   18.313234   19.859351 C.3        1 MOL1         0.1043
      36    H17     16.997460   18.678052   20.135599 H          1 MOL1         0.0783
      37    O9      15.088356   19.429450   19.711143 O.3        1 MOL1        -0.3740
      38    C12     16.113194   17.615677   18.485889 C.3        1 MOL1         0.0138
      39    H18     16.811802   16.773095   18.565706 H          1 MOL1         0.0794
      40    H19     16.537117   18.326411   17.763889 H          1 MOL1         0.0794
      41    O10     14.834799   17.155448   18.038049 O.3        1 MOL1        -0.5486
      42    H20     14.239349   17.936972   18.069686 H          1 MOL1         0.3769
      43    C13     18.504259   24.085434   21.858557 C.3        1 MOL1         0.2972
      44    H21     18.911945   25.087238   22.044362 H          1 MOL1         0.0751
      45    O11     19.517602   23.170510   21.399149 O.3        1 MOL1        -0.3740
      46    C14     17.871320   23.515089   23.150391 C.3        1 MOL1         0.1003
      47    H22     17.039257   24.175170   23.428001 H          1 MOL1         0.0783
      48    O12     18.818787   23.476048   24.226430 O.3        1 MOL1        -0.5519
      49    H23     18.390642   22.913900   24.910790 H          1 MOL1         0.3769
      50    C15     17.293771   22.104376   22.896045 C.3        1 MOL1         0.1053
      51    H24     18.130601   21.422086   22.696405 H          1 MOL1         0.0783
      52    O13     16.568527   21.673798   24.053650 O.3        1 MOL1        -0.5519
      53    H25     15.924341   20.992318   23.744088 H          1 MOL1         0.3769
      54    C16     16.357280   22.081483   21.663269 C.3        1 MOL1         0.1018
      55    H26     15.390279   22.514510   21.953062 H          1 MOL1         0.0783
      56    C17     16.942633   22.845878   20.440259 C.3        1 MOL1         0.1043
      57    H27     17.752177   22.238516   20.014147 H          1 MOL1         0.0783
      58    O14     17.465811   24.132936   20.857092 O.3        1 MOL1        -0.3740
      59    C18     15.914821   23.101584   19.315433 C.3        1 MOL1         0.0138
      60    H28     15.603137   22.139690   18.887619 H          1 MOL1         0.0794
      61    H29     16.404746   23.669892   18.513397 H          1 MOL1         0.0794
      62    O15     14.777098   23.816529   19.806236 O.3        1 MOL1        -0.5486
      63    H30     15.122482   24.652969   20.190386 H          1 MOL1         0.3769
      64    C19     23.537998   22.779170   20.671122 C.3        1 MOL1         0.2972
      65    H31     24.590322   22.858894   20.369457 H          1 MOL1         0.0751
      66    O16     23.196722   21.425650   21.042829 O.3        1 MOL1        -0.3740
      67    C20     23.214653   23.750821   21.838649 C.3        1 MOL1         0.1003
      68    H32     23.354759   24.770892   21.458835 H          1 MOL1         0.0783
      69    O17     24.109552   23.547784   22.942416 O.3        1 MOL1        -0.5519
      70    H33     23.878490   22.671178   23.338631 H          1 MOL1         0.3769
      71    C21     21.727342   23.604038   22.259250 C.3        1 MOL1         0.1053
      72    H34     21.592711   22.597957   22.680193 H          1 MOL1         0.0783
      73    O18     21.374885   24.585719   23.241523 O.3        1 MOL1        -0.5519
      74    H35     20.542513   24.261450   23.665362 H          1 MOL1         0.3769
      75    C22     20.783524   23.746241   21.032703 C.3        1 MOL1         0.1018
      76    H36     20.686600   24.805455   20.759584 H          1 MOL1         0.0783
      77    C23     21.265760   22.950324   19.791631 C.3        1 MOL1         0.1043
      78    H37     21.065792   21.890062   19.979296 H          1 MOL1         0.0783
      79    O19     22.683710   23.153622   19.572102 O.3        1 MOL1        -0.3740
      80    C24     20.525851   23.341896   18.493860 C.3        1 MOL1         0.0138
      81    H38     19.449287   23.176436   18.630045 H          1 MOL1         0.0794
      82    H39     20.860936   22.679370   17.684518 H          1 MOL1         0.0794
      83    O20     20.775904   24.708576   18.153002 O.3        1 MOL1        -0.5486
      84    H40     21.753788   24.807176   18.129257 H          1 MOL1         0.3769
      85    C25     24.824336   17.783853   22.155558 C.3        1 MOL1         0.2972
      86    H41     25.469737   16.962165   22.490883 H          1 MOL1         0.0751
      87    O21     23.583617   17.292015   21.607522 O.3        1 MOL1        -0.3740
      88    C26     24.510572   18.732076   23.342178 C.3        1 MOL1         0.1003
      89    H42     25.467341   19.129808   23.704350 H          1 MOL1         0.0783
      90    O22     23.879011   17.995201   24.403624 O.3        1 MOL1        -0.5519
      91    H43     23.299162   18.618497   24.913670 H          1 MOL1         0.3769
      92    C27     23.647759   19.935399   22.880083 C.3        1 MOL1         0.1053
      93    H44     22.647318   19.561771   22.629455 H          1 MOL1         0.0783
      94    O23     23.564880   20.906141   23.931321 O.3        1 MOL1        -0.5519
      95    H45     22.982666   20.520173   24.635810 H          1 MOL1         0.3769
      96    C28     24.242452   20.618568   21.619430 C.3        1 MOL1         0.1018
      97    H46     25.104641   21.226054   21.924922 H          1 MOL1         0.0783
      98    C29     24.680343   19.600994   20.531136 C.3        1 MOL1         0.1043
      99    H47     23.776632   19.166607   20.083520 H          1 MOL1         0.0783
     100    O24     25.484523   18.556199   21.131000 O.3        1 MOL1        -0.3740
     101    C30     25.504950   20.234835   19.388819 C.3        1 MOL1         0.0138
     102    H48     24.873904   20.952496   18.847826 H          1 MOL1         0.0794
     103    H49     25.785473   19.446376   18.677586 H          1 MOL1         0.0794
     104    O25     26.673818   20.887366   19.893349 O.3        1 MOL1        -0.5486
     105    H50     27.173461   20.205615   20.395389 H          1 MOL1         0.3769
     106    C31     21.422681   13.781319   21.159595 C.3        1 MOL1         0.2972
     107    H51     21.078082   12.760211   20.953277 H          1 MOL1         0.0751
     108    O26     20.324885   14.678639   21.419559 O.3        1 MOL1        -0.3740
     109    C32     22.364015   13.798242   22.389524 C.3        1 MOL1         0.1003
     110    H52     23.229274   13.166037   22.151314 H          1 MOL1         0.0783
     111    O27     21.708434   13.283016   23.556605 O.3        1 MOL1        -0.5519
     112    H53     22.328852   13.479991   24.294306 H          1 MOL1         0.3769
     113    C33     22.880091   15.229459   22.668131 C.3        1 MOL1         0.1053
     114    H54     22.023604   15.842352   22.980095 H          1 MOL1         0.0783
     115    O28     23.848629   15.181080   23.722340 O.3        1 MOL1        -0.5519
     116    H55     23.923996   16.107889   24.061918 H          1 MOL1         0.3769
     117    C34     23.491559   15.870278   21.391875 C.3        1 MOL1         0.1018
     118    H56     24.477205   15.429658   21.191572 H          1 MOL1         0.0783
     119    C35     22.591439   15.674631   20.140604 C.3        1 MOL1         0.1043
     120    H57     21.710522   16.322588   20.236460 H          1 MOL1         0.0783
     121    O29     22.169742   14.292360   20.036588 O.3        1 MOL1        -0.3740
     122    C36     23.310855   16.041783   18.823724 C.3        1 MOL1         0.0138
     123    H58     23.646888   17.085568   18.876182 H          1 MOL1         0.0794
     124    H59     22.592093   15.967295   17.996787 H          1 MOL1         0.0794
     125    O30     24.426620   15.177509   18.590143 O.3        1 MOL1        -0.5486
     126    H60     24.076647   14.261090   18.656249 H          1 MOL1         0.3769
     127    C1      20.672081   19.528272   25.585253 C.2        1 MOL1         0.6168
     128    O1      19.943697   19.380446   26.546526 O.co2      1 MOL1        -0.6703
     129    O2      21.887436   19.544878   25.651088 O.co2      1 MOL1        -0.6703
     130    C2      20.032022   19.683997   24.209746 C.3        1 MOL1        -0.1963
     131    H1      20.623494   20.407203   23.638455 H          1 MOL1         0.0750
     132    H2      19.037538   20.120388   24.352504 H          1 MOL1         0.0750
     133    C3      19.912957   18.338378   23.449653 C.3        1 MOL1        -0.1860
     134    H3      20.895115   17.849232   23.405672 H          1 MOL1         0.0752
     135    H4      19.260824   17.670832   24.029105 H          1 MOL1         0.0752
     136    C4      19.338522   18.487110   22.021804 C.3        1 MOL1        -0.1858
     137    H5      18.441242   19.118352   22.042370 H          1 MOL1         0.0752
     138    H6      19.017670   17.497794   21.675593 H          1 MOL1         0.0752
     139    C5      20.364099   19.045109   21.011064 C.3        1 MOL1        -0.1858
     140    H7      20.677632   20.053217   21.308845 H          1 MOL1         0.0752
     141    H8      21.260595   18.415569   21.031906 H          1 MOL1         0.0752
     142    C6      19.796483   19.082661   19.575944 C.3        1 MOL1        -0.1858
     143    H9      19.052132   19.887271   19.503988 H          1 MOL1         0.0752
     144    H10     19.274087   18.141402   19.360240 H          1 MOL1         0.0752
     145    C7      20.902045   19.284394   18.518216 C.3        1 MOL1        -0.1834
     146    H11     21.511361   20.162879   18.760828 H          1 MOL1         0.0752
     147    H12     21.581160   18.423010   18.532171 H          1 MOL1         0.0752
     148    C8      20.308191   19.443490   17.105146 C.3        1 MOL1        -0.2849
     149    H13     19.644758   20.316458   17.054373 H          1 MOL1         0.0764
     150    H14     21.105846   19.579667   16.363656 H          1 MOL1         0.0764
     151    H15     19.728512   18.555549   16.821430 H          1 MOL1         0.0764
@<TRIPOS>BOND
    1     1     2    1
    2     1     3    1
    3     1     4    1
    4     4     5    1
    5     4     6    1
    6     6     7    1
    7     4     8    1
    8     8     9    1
    9     8    10    1
   10    10    11    1
   11     8    12    1
   12    12    13    1
   13    12    14    1
   14    14    15    1
   15     1    16    1
   16    14    16    1
   17    14    17    1
   18    17    18    1
   19    17    19    1
   20    17    20    1
   21    20    21    1
   22    22    23    1
   23    22    24    1
   24    22    25    1
   25    25    26    1
   26    25    27    1
   27    27    28    1
   28    25    29    1
   29    29    30    1
   30    29    31    1
   31    31    32    1
   32     3    33    1
   33    29    33    1
   34    33    34    1
   35    33    35    1
   36    35    36    1
   37    22    37    1
   38    35    37    1
   39    35    38    1
   40    38    39    1
   41    38    40    1
   42    38    41    1
   43    41    42    1
   44    43    44    1
   45    43    45    1
   46    43    46    1
   47    46    47    1
   48    46    48    1
   49    48    49    1
   50    46    50    1
   51    50    51    1
   52    50    52    1
   53    52    53    1
   54    24    54    1
   55    50    54    1
   56    54    55    1
   57    54    56    1
   58    56    57    1
   59    43    58    1
   60    56    58    1
   61    56    59    1
   62    59    60    1
   63    59    61    1
   64    59    62    1
   65    62    63    1
   66    64    65    1
   67    64    66    1
   68    64    67    1
   69    67    68    1
   70    67    69    1
   71    69    70    1
   72    67    71    1
   73    71    72    1
   74    71    73    1
   75    73    74    1
   76    45    75    1
   77    71    75    1
   78    75    76    1
   79    75    77    1
   80    77    78    1
   81    64    79    1
   82    77    79    1
   83    77    80    1
   84    80    81    1
   85    80    82    1
   86    80    83    1
   87    83    84    1
   88    85    86    1
   89    85    87    1
   90    85    88    1
   91    88    89    1
   92    88    90    1
   93    90    91    1
   94    88    92    1
   95    92    93    1
   96    92    94    1
   97    94    95    1
   98    66    96    1
   99    92    96    1
  100    96    97    1
  101    96    98    1
  102    98    99    1
  103    85   100    1
  104    98   100    1
  105    98   101    1
  106   101   102    1
  107   101   103    1
  108   101   104    1
  109   104   105    1
  110   106   107    1
  111    12   108    1
  112   106   108    1
  113   106   109    1
  114   109   110    1
  115   109   111    1
  116   111   112    1
  117   109   113    1
  118   113   114    1
  119   113   115    1
  120   115   116    1
  121    87   117    1
  122   113   117    1
  123   117   118    1
  124   117   119    1
  125   119   120    1
  126   106   121    1
  127   119   121    1
  128   119   122    1
  129   122   123    1
  130   122   124    1
  131   122   125    1
  132   125   126    1
  133   127   128    1
  134   127   129    2
  135   127   130    1
  136   130   131    1
  137   130   132    1
  138   130   133    1
  139   133   134    1
  140   133   135    1
  141   133   136    1
  142   136   137    1
  143   136   138    1
  144   136   139    1
  145   139   140    1
  146   139   141    1
  147   139   142    1
  148   142   143    1
  149   142   144    1
  150   142   145    1
  151   145   146    1
  152   145   147    1
  153   145   148    1
  154   148   149    1
  155   148   150    1
  156   148   151    1
@<TRIPOS>SUBSTRUCTURE
       1 MOL1            1 RESIDUE      1      MOL     
       2 MOL1          151 RESIDUE      1      MOL     
@<SCITEGIC>MOL_PROPERTY
VM2 Rank
SciTegic.value.IntegerValue
1

@<SCITEGIC>MOL_PROPERTY
Conf_Id
SciTegic.value.IntegerValue
25985

@<SCITEGIC>MOL_PROPERTY
Probability
SciTegic.value.DoubleValue
6.14

@<SCITEGIC>MOL_PROPERTY
Sum Probability
SciTegic.value.DoubleValue
6.14

@<SCITEGIC>MOL_PROPERTY
Delta G
SciTegic.value.DoubleValue
0.000

@<SCITEGIC>MOL_PROPERTY
G
SciTegic.value.DoubleValue
504.823

@<SCITEGIC>MOL_PROPERTY
E
SciTegic.value.DoubleValue
307.722

@<SCITEGIC>MOL_PROPERTY
-TS
SciTegic.value.DoubleValue
197.101

@<SCITEGIC>MOL_PROPERTY
U+W
SciTegic.value.DoubleValue
174.480

@<SCITEGIC>MOL_PROPERTY
U
SciTegic.value.DoubleValue
246.223

@<SCITEGIC>MOL_PROPERTY
W
SciTegic.value.DoubleValue
-71.744

@<SCITEGIC>MOL_PROPERTY
W(PB)
SciTegic.value.DoubleValue
-77.963

@<SCITEGIC>MOL_PROPERTY
W(SA)
SciTegic.value.DoubleValue
6.220

@<SCITEGIC>MOL_PROPERTY
Valence
SciTegic.value.DoubleValue
151.046

@<SCITEGIC>MOL_PROPERTY
Coulomb
SciTegic.value.DoubleValue
122.202

@<SCITEGIC>MOL_PROPERTY
VdW
SciTegic.value.DoubleValue
-27.025

@<SCITEGIC>MOL_PROPERTY
VdW6
SciTegic.value.DoubleValue
-184.876

@<SCITEGIC>MOL_PROPERTY
VdW12
SciTegic.value.DoubleValue
157.851

@<SCITEGIC>MOL_PROPERTY
Bond
SciTegic.value.DoubleValue
4.477

@<SCITEGIC>MOL_PROPERTY
Angle
SciTegic.value.DoubleValue
11.484

@<SCITEGIC>MOL_PROPERTY
Pdih
SciTegic.value.DoubleValue
135.084

@<SCITEGIC>MOL_PROPERTY
Idih
SciTegic.value.DoubleValue
0.001

@<SCITEGIC>MOL_PROPERTY
Tether
SciTegic.value.DoubleValue
0.000

