@<TRIPOS>MOLECULE
CD_guest-s19_vm2_single.mol2 : vm2 host+ligand conformer 1
         143         148           2
SMALL
USER_CHARGES
 
@<TRIPOS>ATOM
       1    C1      16.179473   15.144670   21.834734 C.3        1 MOL1         0.2972
       2    H1      15.106079   14.944051   21.941614 H          1 MOL1         0.0751
       3    O1      16.443063   16.546191   21.625732 O.3        1 MOL1        -0.3740
       4    C2      16.932018   14.673875   23.105048 C.3        1 MOL1         0.1003
       5    H2      16.756220   13.594971   23.206003 H          1 MOL1         0.0783
       6    O2      16.445489   15.339929   24.278271 O.3        1 MOL1        -0.5519
       7    H3      17.094607   15.110040   24.980687 H          1 MOL1         0.3769
       8    C3      18.456008   14.892720   22.965694 C.3        1 MOL1         0.1053
       9    H4      18.648996   15.973533   22.975182 H          1 MOL1         0.0783
      10    O3      19.131944   14.266030   24.062767 O.3        1 MOL1        -0.5519
      11    H5      20.078232   14.174042   23.792623 H          1 MOL1         0.3769
      12    C4      18.994550   14.307073   21.637382 C.3        1 MOL1         0.1018
      13    H6      19.047139   13.214947   21.740985 H          1 MOL1         0.0783
      14    C5      18.114339   14.681016   20.410595 C.3        1 MOL1         0.1043
      15    H7      18.255270   15.748570   20.194708 H          1 MOL1         0.0783
      16    O4      16.720365   14.420006   20.710287 O.3        1 MOL1        -0.3740
      17    C6      18.464875   13.892831   19.128660 C.3        1 MOL1         0.0138
      18    H8      19.476475   14.165552   18.802007 H          1 MOL1         0.0794
      19    H9      17.774269   14.194848   18.329955 H          1 MOL1         0.0794
      20    O5      18.379600   12.481919   19.349748 O.3        1 MOL1        -0.5486
      21    H10     17.462672   12.307620   19.658483 H          1 MOL1         0.3769
      22    C7      14.673843   20.223349   20.957612 C.3        1 MOL1         0.2972
      23    H11     13.996924   21.055843   20.728674 H          1 MOL1         0.0751
      24    O6      16.033891   20.670004   21.138763 O.3        1 MOL1        -0.3740
      25    C8      14.212598   19.506875   22.251563 C.3        1 MOL1         0.1003
      26    H12     13.203009   19.115867   22.070007 H          1 MOL1         0.0783
      27    O7      14.175932   20.410759   23.364239 O.3        1 MOL1        -0.5519
      28    H13     14.050292   19.831510   24.149455 H          1 MOL1         0.3769
      29    C9      15.135986   18.310950   22.575471 C.3        1 MOL1         0.1053
      30    H14     16.125654   18.710214   22.831173 H          1 MOL1         0.0783
      31    O8      14.603382   17.578012   23.685541 O.3        1 MOL1        -0.5519
      32    H15     15.258155   16.865459   23.894074 H          1 MOL1         0.3769
      33    C10     15.296692   17.373912   21.352771 C.3        1 MOL1         0.1018
      34    H16     14.379066   16.783980   21.227968 H          1 MOL1         0.0783
      35    C11     15.582971   18.145670   20.035430 C.3        1 MOL1         0.1043
      36    H17     16.608959   18.529887   20.069622 H          1 MOL1         0.0783
      37    O9      14.654643   19.249753   19.892335 O.3        1 MOL1        -0.3740
      38    C12     15.454859   17.258913   18.777536 C.3        1 MOL1         0.0138
      39    H18     16.163909   16.424146   18.852164 H          1 MOL1         0.0794
      40    H19     15.735994   17.852488   17.897468 H          1 MOL1         0.0794
      41    O10     14.121146   16.761906   18.634325 O.3        1 MOL1        -0.5486
      42    H20     13.534095   17.550344   18.656387 H          1 MOL1         0.3769
      43    C13     18.557179   23.931505   20.625429 C.3        1 MOL1         0.2972
      44    H21     19.001514   24.900311   20.363688 H          1 MOL1         0.0751
      45    O11     19.567517   22.990026   21.040785 O.3        1 MOL1        -0.3740
      46    C14     17.488549   24.096913   21.742253 C.3        1 MOL1         0.1003
      47    H22     16.710821   24.760853   21.343862 H          1 MOL1         0.0783
      48    O12     18.052726   24.707080   22.913403 O.3        1 MOL1        -0.5519
      49    H23     18.667939   24.042651   23.312655 H          1 MOL1         0.3769
      50    C15     16.817835   22.735966   22.072074 C.3        1 MOL1         0.1053
      51    H24     17.568022   22.085341   22.543744 H          1 MOL1         0.0783
      52    O13     15.705666   22.927327   22.955791 O.3        1 MOL1        -0.5519
      53    H25     15.308308   22.035546   23.113279 H          1 MOL1         0.3769
      54    C16     16.307958   22.039484   20.784823 C.3        1 MOL1         0.1018
      55    H26     15.408402   22.563273   20.435597 H          1 MOL1         0.0783
      56    C17     17.360849   22.033637   19.645569 C.3        1 MOL1         0.1043
      57    H27     18.163284   21.336721   19.917238 H          1 MOL1         0.0783
      58    O14     17.897389   23.369321   19.471919 O.3        1 MOL1        -0.3740
      59    C18     16.783594   21.584075   18.285153 C.3        1 MOL1         0.0138
      60    H28     16.401969   20.559243   18.376353 H          1 MOL1         0.0794
      61    H29     17.596466   21.566091   17.547012 H          1 MOL1         0.0794
      62    O15     15.740443   22.463005   17.853227 O.3        1 MOL1        -0.5486
      63    H30     16.127140   23.366821   17.858697 H          1 MOL1         0.3769
      64    C19     23.484746   22.694046   22.326649 C.3        1 MOL1         0.2972
      65    H31     24.497553   22.850458   22.719110 H          1 MOL1         0.0751
      66    O16     23.356356   21.407762   21.682723 O.3        1 MOL1        -0.3740
      67    C20     22.441724   22.801239   23.469676 C.3        1 MOL1         0.1003
      68    H32     22.504119   23.819950   23.873582 H          1 MOL1         0.0783
      69    O17     22.752721   21.868854   24.518289 O.3        1 MOL1        -0.5519
      70    H33     21.905980   21.453480   24.830687 H          1 MOL1         0.3769
      71    C21     21.006259   22.604230   22.918929 C.3        1 MOL1         0.1053
      72    H34     20.911148   21.571127   22.569459 H          1 MOL1         0.0783
      73    O18     20.044253   22.865904   23.949182 O.3        1 MOL1        -0.5519
      74    H35     20.081608   22.091541   24.567604 H          1 MOL1         0.3769
      75    C22     20.728221   23.529004   21.706294 C.3        1 MOL1         0.1018
      76    H36     20.554582   24.548259   22.075477 H          1 MOL1         0.0783
      77    C23     21.890997   23.534922   20.673195 C.3        1 MOL1         0.1043
      78    H37     21.883767   22.573518   20.142411 H          1 MOL1         0.0783
      79    O19     23.160239   23.707998   21.351977 O.3        1 MOL1        -0.3740
      80    C24     21.770552   24.650583   19.611132 C.3        1 MOL1         0.0138
      81    H38     20.879219   24.465848   18.997147 H          1 MOL1         0.0794
      82    H39     22.641542   24.597565   18.944211 H          1 MOL1         0.0794
      83    O20     21.690983   25.942010   20.221234 O.3        1 MOL1        -0.5486
      84    H40     22.498056   26.035120   20.774876 H          1 MOL1         0.3769
      85    C25     25.188987   17.741202   21.276996 C.3        1 MOL1         0.2972
      86    H41     25.859641   16.887202   21.119604 H          1 MOL1         0.0751
      87    O21     23.807776   17.331225   21.366169 O.3        1 MOL1        -0.3740
      88    C26     25.577575   18.485732   22.576216 C.3        1 MOL1         0.1003
      89    H42     26.599769   18.863396   22.442803 H          1 MOL1         0.0783
      90    O22     25.545665   17.609913   23.711243 O.3        1 MOL1        -0.5519
      91    H43     25.642227   18.208051   24.486418 H          1 MOL1         0.3769
      92    C27     24.652381   19.699903   22.818944 C.3        1 MOL1         0.1053
      93    H44     23.646430   19.319411   23.046742 H          1 MOL1         0.0783
      94    O23     25.157804   20.441579   23.935124 O.3        1 MOL1        -0.5519
      95    H45     24.401587   20.990066   24.260947 H          1 MOL1         0.3769
      96    C28     24.553158   20.610994   21.562765 C.3        1 MOL1         0.1018
      97    H46     25.450211   21.240136   21.490819 H          1 MOL1         0.0783
      98    C29     24.395463   19.808918   20.240067 C.3        1 MOL1         0.1043
      99    H47     23.366351   19.437314   20.185488 H          1 MOL1         0.0783
     100    O24     25.314226   18.688631   20.197220 O.3        1 MOL1        -0.3740
     101    C30     24.645477   20.671246   18.983396 C.3        1 MOL1         0.0138
     102    H48     23.945473   21.517522   18.984096 H          1 MOL1         0.0794
     103    H49     24.431681   20.066086   18.092263 H          1 MOL1         0.0794
     104    O25     25.994399   21.146322   18.947336 O.3        1 MOL1        -0.5486
     105    H50     26.564587   20.350136   19.036733 H          1 MOL1         0.3769
     106    C31     21.318689   14.009527   20.939305 C.3        1 MOL1         0.2972
     107    H51     20.911023   13.023682   20.681053 H          1 MOL1         0.0751
     108    O26     20.298030   14.888477   21.448591 O.3        1 MOL1        -0.3740
     109    C32     22.428767   13.875863   22.014456 C.3        1 MOL1         0.1003
     110    H52     23.201315   13.212178   21.604875 H          1 MOL1         0.0783
     111    O27     21.913925   13.310031   23.228372 O.3        1 MOL1        -0.5519
     112    H53     22.653808   13.387686   23.871836 H          1 MOL1         0.3769
     113    C33     23.088476   15.243099   22.318391 C.3        1 MOL1         0.1053
     114    H54     22.346511   15.876922   22.824385 H          1 MOL1         0.0783
     115    O28     24.222596   15.039925   23.170224 O.3        1 MOL1        -0.5519
     116    H55     24.595848   15.935402   23.366876 H          1 MOL1         0.3769
     117    C34     23.526699   15.961536   21.017606 C.3        1 MOL1         0.1018
     118    H56     24.405424   15.452610   20.599878 H          1 MOL1         0.0783
     119    C35     22.399256   15.972698   19.953446 C.3        1 MOL1         0.1043
     120    H57     21.593156   16.627568   20.305847 H          1 MOL1         0.0783
     121    O29     21.896587   14.626995   19.769546 O.3        1 MOL1        -0.3740
     122    C36     22.868980   16.488842   18.575462 C.3        1 MOL1         0.0138
     123    H58     23.237861   17.516978   18.682321 H          1 MOL1         0.0794
     124    H59     22.005589   16.518675   17.897617 H          1 MOL1         0.0794
     125    O30     23.894664   15.650089   18.035916 O.3        1 MOL1        -0.5486
     126    H60     23.530859   14.736875   18.045867 H          1 MOL1         0.3769
     127    C1      19.439383   19.801844   25.243458 C.2        1 MOL1         0.6173
     128    O1      20.477519   20.437057   25.304103 O.co2      1 MOL1        -0.6755
     129    O2      18.640975   19.749849   26.157801 O.co2      1 MOL1        -0.6755
     130    C2      19.057843   19.155537   23.959376 C.2        1 MOL1        -0.1504
     131    H1      18.056260   18.737339   23.922950 H          1 MOL1         0.0814
     132    C3      19.865768   19.092057   22.877221 C.2        1 MOL1        -0.1394
     133    H2      20.884013   19.474974   22.919703 H          1 MOL1         0.0817
     134    C4      19.431793   18.518353   21.547787 C.3        1 MOL1        -0.1849
     135    H3      18.356285   18.683235   21.416717 H          1 MOL1         0.0736
     136    H4      19.592842   17.435590   21.539579 H          1 MOL1         0.0736
     137    C5      20.196742   19.159990   20.373923 C.3        1 MOL1        -0.1866
     138    H5      20.101132   20.252765   20.420273 H          1 MOL1         0.0738
     139    H6      21.264093   18.934874   20.476990 H          1 MOL1         0.0738
     140    C6      19.687305   18.649101   19.010912 C.3        1 MOL1        -0.2879
     141    H7      18.636833   18.924906   18.857823 H          1 MOL1         0.0750
     142    H8      20.274004   19.084536   18.192057 H          1 MOL1         0.0750
     143    H9      19.766755   17.556605   18.944650 H          1 MOL1         0.0750
@<TRIPOS>BOND
    1     1     2    1
    2     1     3    1
    3     1     4    1
    4     4     5    1
    5     4     6    1
    6     6     7    1
    7     4     8    1
    8     8     9    1
    9     8    10    1
   10    10    11    1
   11     8    12    1
   12    12    13    1
   13    12    14    1
   14    14    15    1
   15     1    16    1
   16    14    16    1
   17    14    17    1
   18    17    18    1
   19    17    19    1
   20    17    20    1
   21    20    21    1
   22    22    23    1
   23    22    24    1
   24    22    25    1
   25    25    26    1
   26    25    27    1
   27    27    28    1
   28    25    29    1
   29    29    30    1
   30    29    31    1
   31    31    32    1
   32     3    33    1
   33    29    33    1
   34    33    34    1
   35    33    35    1
   36    35    36    1
   37    22    37    1
   38    35    37    1
   39    35    38    1
   40    38    39    1
   41    38    40    1
   42    38    41    1
   43    41    42    1
   44    43    44    1
   45    43    45    1
   46    43    46    1
   47    46    47    1
   48    46    48    1
   49    48    49    1
   50    46    50    1
   51    50    51    1
   52    50    52    1
   53    52    53    1
   54    24    54    1
   55    50    54    1
   56    54    55    1
   57    54    56    1
   58    56    57    1
   59    43    58    1
   60    56    58    1
   61    56    59    1
   62    59    60    1
   63    59    61    1
   64    59    62    1
   65    62    63    1
   66    64    65    1
   67    64    66    1
   68    64    67    1
   69    67    68    1
   70    67    69    1
   71    69    70    1
   72    67    71    1
   73    71    72    1
   74    71    73    1
   75    73    74    1
   76    45    75    1
   77    71    75    1
   78    75    76    1
   79    75    77    1
   80    77    78    1
   81    64    79    1
   82    77    79    1
   83    77    80    1
   84    80    81    1
   85    80    82    1
   86    80    83    1
   87    83    84    1
   88    85    86    1
   89    85    87    1
   90    85    88    1
   91    88    89    1
   92    88    90    1
   93    90    91    1
   94    88    92    1
   95    92    93    1
   96    92    94    1
   97    94    95    1
   98    66    96    1
   99    92    96    1
  100    96    97    1
  101    96    98    1
  102    98    99    1
  103    85   100    1
  104    98   100    1
  105    98   101    1
  106   101   102    1
  107   101   103    1
  108   101   104    1
  109   104   105    1
  110   106   107    1
  111    12   108    1
  112   106   108    1
  113   106   109    1
  114   109   110    1
  115   109   111    1
  116   111   112    1
  117   109   113    1
  118   113   114    1
  119   113   115    1
  120   115   116    1
  121    87   117    1
  122   113   117    1
  123   117   118    1
  124   117   119    1
  125   119   120    1
  126   106   121    1
  127   119   121    1
  128   119   122    1
  129   122   123    1
  130   122   124    1
  131   122   125    1
  132   125   126    1
  133   127   128    1
  134   127   129    2
  135   127   130    1
  136   130   131    1
  137   130   132    2
  138   132   133    1
  139   132   134    1
  140   134   135    1
  141   134   136    1
  142   134   137    1
  143   137   138    1
  144   137   139    1
  145   137   140    1
  146   140   141    1
  147   140   142    1
  148   140   143    1
@<TRIPOS>SUBSTRUCTURE
       1 MOL1            1 RESIDUE      1      MOL     
       2 MOL1          143 RESIDUE      1      MOL     
@<SCITEGIC>MOL_PROPERTY
VM2 Rank
SciTegic.value.IntegerValue
1

@<SCITEGIC>MOL_PROPERTY
Conf_Id
SciTegic.value.IntegerValue
21873

@<SCITEGIC>MOL_PROPERTY
Probability
SciTegic.value.DoubleValue
2.05

@<SCITEGIC>MOL_PROPERTY
Sum Probability
SciTegic.value.DoubleValue
2.05

@<SCITEGIC>MOL_PROPERTY
Delta G
SciTegic.value.DoubleValue
0.000

@<SCITEGIC>MOL_PROPERTY
G
SciTegic.value.DoubleValue
487.611

@<SCITEGIC>MOL_PROPERTY
E
SciTegic.value.DoubleValue
306.038

@<SCITEGIC>MOL_PROPERTY
-TS
SciTegic.value.DoubleValue
181.573

@<SCITEGIC>MOL_PROPERTY
U+W
SciTegic.value.DoubleValue
179.950

@<SCITEGIC>MOL_PROPERTY
U
SciTegic.value.DoubleValue
254.782

@<SCITEGIC>MOL_PROPERTY
W
SciTegic.value.DoubleValue
-74.832

@<SCITEGIC>MOL_PROPERTY
W(PB)
SciTegic.value.DoubleValue
-80.968

@<SCITEGIC>MOL_PROPERTY
W(SA)
SciTegic.value.DoubleValue
6.136

@<SCITEGIC>MOL_PROPERTY
Valence
SciTegic.value.DoubleValue
146.368

@<SCITEGIC>MOL_PROPERTY
Coulomb
SciTegic.value.DoubleValue
130.334

@<SCITEGIC>MOL_PROPERTY
VdW
SciTegic.value.DoubleValue
-21.921

@<SCITEGIC>MOL_PROPERTY
VdW6
SciTegic.value.DoubleValue
-171.523

@<SCITEGIC>MOL_PROPERTY
VdW12
SciTegic.value.DoubleValue
149.602

@<SCITEGIC>MOL_PROPERTY
Bond
SciTegic.value.DoubleValue
4.507

@<SCITEGIC>MOL_PROPERTY
Angle
SciTegic.value.DoubleValue
11.407

@<SCITEGIC>MOL_PROPERTY
Pdih
SciTegic.value.DoubleValue
130.431

@<SCITEGIC>MOL_PROPERTY
Idih
SciTegic.value.DoubleValue
0.023

@<SCITEGIC>MOL_PROPERTY
Tether
SciTegic.value.DoubleValue
0.000

