@<TRIPOS>MOLECULE
CD_guest-s14_vm2_single.mol2 : vm2 host+ligand conformer 1
         152         157           2
SMALL
USER_CHARGES
 
@<TRIPOS>ATOM
       1    C1      16.281035   15.118201   21.263138 C.3        1 MOL1         0.2972
       2    H1      15.237629   14.836518   21.073743 H          1 MOL1         0.0751
       3    O1      16.435434   16.542879   21.409727 O.3        1 MOL1        -0.3740
       4    C2      16.782165   14.451605   22.568424 C.3        1 MOL1         0.1003
       5    H2      16.692612   13.365278   22.438009 H          1 MOL1         0.0783
       6    O2      15.984214   14.857912   23.692018 O.3        1 MOL1        -0.5519
       7    H3      15.651542   15.771370   23.504160 H          1 MOL1         0.3769
       8    C3      18.273159   14.778951   22.820489 C.3        1 MOL1         0.1053
       9    H4      18.350670   15.852537   23.032230 H          1 MOL1         0.0783
      10    O3      18.727438   14.028293   23.951469 O.3        1 MOL1        -0.5519
      11    H5      17.987225   14.080319   24.598265 H          1 MOL1         0.3769
      12    C4      19.134052   14.467652   21.566046 C.3        1 MOL1         0.1018
      13    H6      19.217499   13.380309   21.435216 H          1 MOL1         0.0783
      14    C5      18.521703   15.071069   20.275476 C.3        1 MOL1         0.1043
      15    H7      18.613399   16.164342   20.311406 H          1 MOL1         0.0783
      16    O4      17.129687   14.678164   20.181842 O.3        1 MOL1        -0.3740
      17    C6      19.237409   14.560708   19.007054 C.3        1 MOL1         0.0138
      18    H8      19.047788   13.485234   18.890743 H          1 MOL1         0.0794
      19    H9      20.320184   14.695631   19.122605 H          1 MOL1         0.0794
      20    O5      18.784271   15.279263   17.858684 O.3        1 MOL1        -0.5486
      21    H10     17.808267   15.179389   17.831521 H          1 MOL1         0.3769
      22    C7      14.610612   20.196951   20.784456 C.3        1 MOL1         0.2972
      23    H11     13.949126   21.034162   20.527098 H          1 MOL1         0.0751
      24    O6      15.934965   20.640123   21.144620 O.3        1 MOL1        -0.3740
      25    C8      14.043542   19.390372   21.978505 C.3        1 MOL1         0.1003
      26    H12     13.075153   18.975273   21.670363 H          1 MOL1         0.0783
      27    O7      13.854019   20.228568   23.129360 O.3        1 MOL1        -0.5519
      28    H13     14.660675   20.796885   23.221134 H          1 MOL1         0.3769
      29    C9      14.987824   18.212541   22.315243 C.3        1 MOL1         0.1053
      30    H14     15.930861   18.637554   22.679153 H          1 MOL1         0.0783
      31    O8      14.402166   17.396903   23.334083 O.3        1 MOL1        -0.5519
      32    H15     14.035475   18.031873   23.989371 H          1 MOL1         0.3769
      33    C10     15.297965   17.355086   21.062128 C.3        1 MOL1         0.1018
      34    H16     14.413266   16.750977   20.821225 H          1 MOL1         0.0783
      35    C11     15.682916   18.215014   19.825801 C.3        1 MOL1         0.1043
      36    H17     16.689743   18.625541   19.970450 H          1 MOL1         0.0783
      37    O9      14.723362   19.288832   19.669409 O.3        1 MOL1        -0.3740
      38    C12     15.679064   17.403448   18.515127 C.3        1 MOL1         0.0138
      39    H18     14.668885   17.014590   18.329847 H          1 MOL1         0.0794
      40    H19     16.355057   16.547071   18.617741 H          1 MOL1         0.0794
      41    O10     16.107089   18.228572   17.430521 O.3        1 MOL1        -0.5486
      42    H20     15.530275   19.023636   17.451361 H          1 MOL1         0.3769
      43    C13     18.386859   23.966865   21.246926 C.3        1 MOL1         0.2972
      44    H21     18.827378   24.971895   21.216657 H          1 MOL1         0.0751
      45    O11     19.407441   22.944371   21.233599 O.3        1 MOL1        -0.3740
      46    C14     17.476734   23.792390   22.493593 C.3        1 MOL1         0.1003
      47    H22     16.651943   24.509820   22.392503 H          1 MOL1         0.0783
      48    O12     18.172313   24.063899   23.718833 O.3        1 MOL1        -0.5519
      49    H23     18.880813   23.377304   23.804484 H          1 MOL1         0.3769
      50    C15     16.868608   22.370616   22.514294 C.3        1 MOL1         0.1053
      51    H24     17.686122   21.649726   22.642006 H          1 MOL1         0.0783
      52    O13     15.949771   22.256917   23.605422 O.3        1 MOL1        -0.5519
      53    H25     16.399649   22.688787   24.365505 H          1 MOL1         0.3769
      54    C16     16.145019   22.062290   21.180197 C.3        1 MOL1         0.1018
      55    H26     15.198718   22.619083   21.165705 H          1 MOL1         0.0783
      56    C17     16.996440   22.434655   19.933749 C.3        1 MOL1         0.1043
      57    H27     17.811193   21.704589   19.840220 H          1 MOL1         0.0783
      58    O14     17.550694   23.765259   20.087732 O.3        1 MOL1        -0.3740
      59    C18     16.192015   22.411463   18.614999 C.3        1 MOL1         0.0138
      60    H28     15.846352   21.387486   18.423580 H          1 MOL1         0.0794
      61    H29     16.859989   22.689654   17.788892 H          1 MOL1         0.0794
      62    O15     15.076671   23.305604   18.674506 O.3        1 MOL1        -0.5486
      63    H30     15.447337   24.194405   18.872055 H          1 MOL1         0.3769
      64    C19     23.463238   22.383286   22.035273 C.3        1 MOL1         0.2972
      65    H31     24.500955   22.510750   22.366927 H          1 MOL1         0.0751
      66    O16     23.319775   21.245472   21.159136 O.3        1 MOL1        -0.3740
      67    C20     22.514952   22.211807   23.254086 C.3        1 MOL1         0.1003
      68    H32     22.612509   23.117332   23.867080 H          1 MOL1         0.0783
      69    O17     22.854010   21.067363   24.053682 O.3        1 MOL1        -0.5519
      70    H33     23.820474   20.908418   23.936507 H          1 MOL1         0.3769
      71    C21     21.045707   22.100648   22.790448 C.3        1 MOL1         0.1053
      72    H34     20.944795   21.174270   22.213961 H          1 MOL1         0.0783
      73    O18     20.202153   22.050691   23.944601 O.3        1 MOL1        -0.5519
      74    H35     20.664415   21.431102   24.552744 H          1 MOL1         0.3769
      75    C22     20.656945   23.282687   21.869596 C.3        1 MOL1         0.1018
      76    H36     20.573075   24.191098   22.480854 H          1 MOL1         0.0783
      77    C23     21.704494   23.503604   20.743173 C.3        1 MOL1         0.1043
      78    H37     21.638968   22.663658   20.038477 H          1 MOL1         0.0783
      79    O19     23.036204   23.558899   21.312856 O.3        1 MOL1        -0.3740
      80    C24     21.479716   24.807065   19.944342 C.3        1 MOL1         0.0138
      81    H38     20.522585   24.738604   19.410311 H          1 MOL1         0.0794
      82    H39     22.269907   24.898375   19.187129 H          1 MOL1         0.0794
      83    O20     21.482433   25.949455   20.805661 O.3        1 MOL1        -0.5486
      84    H40     22.350097   25.943899   21.267878 H          1 MOL1         0.3769
      85    C25     25.195785   17.634905   20.531754 C.3        1 MOL1         0.2972
      86    H41     25.820203   16.775626   20.255166 H          1 MOL1         0.0751
      87    O21     23.855171   17.225578   20.883461 O.3        1 MOL1        -0.3740
      88    C26     25.834015   18.451167   21.684306 C.3        1 MOL1         0.1003
      89    H42     26.763058   18.884685   21.291315 H          1 MOL1         0.0783
      90    O22     26.159036   17.638179   22.820735 O.3        1 MOL1        -0.5519
      91    H43     25.299747   17.346107   23.216347 H          1 MOL1         0.3769
      92    C27     24.901195   19.617950   22.086585 C.3        1 MOL1         0.1053
      93    H44     23.978763   19.188498   22.499770 H          1 MOL1         0.0783
      94    O23     25.562952   20.401779   23.086380 O.3        1 MOL1        -0.5519
      95    H45     26.040095   19.748131   23.647221 H          1 MOL1         0.3769
      96    C28     24.512899   20.489382   20.854263 C.3        1 MOL1         0.1018
      97    H46     25.347453   21.157108   20.602419 H          1 MOL1         0.0783
      98    C29     24.152055   19.643065   19.598711 C.3        1 MOL1         0.1043
      99    H47     23.139356   19.241806   19.724267 H          1 MOL1         0.0783
     100    O24     25.093407   18.552761   19.423025 O.3        1 MOL1        -0.3740
     101    C30     24.166192   20.490330   18.310107 C.3        1 MOL1         0.0138
     102    H48     25.190687   20.832529   18.111480 H          1 MOL1         0.0794
     103    H49     23.537925   21.379506   18.455447 H          1 MOL1         0.0794
     104    O25     23.671411   19.718717   17.213999 O.3        1 MOL1        -0.5486
     105    H50     24.184987   18.880180   17.217212 H          1 MOL1         0.3769
     106    C31     21.430576   14.245407   22.361887 C.3        1 MOL1         0.2972
     107    H51     20.989488   13.340581   22.799524 H          1 MOL1         0.0751
     108    O26     20.428879   15.075903   21.739303 O.3        1 MOL1        -0.3740
     109    C32     22.153944   15.064839   23.457545 C.3        1 MOL1         0.1003
     110    H52     22.941834   14.422812   23.872512 H          1 MOL1         0.0783
     111    O27     21.253464   15.444935   24.511453 O.3        1 MOL1        -0.5519
     112    H53     20.426992   14.916935   24.391334 H          1 MOL1         0.3769
     113    C33     22.824424   16.320824   22.856613 C.3        1 MOL1         0.1053
     114    H54     22.033388   17.004588   22.531227 H          1 MOL1         0.0783
     115    O28     23.603783   16.945807   23.878690 O.3        1 MOL1        -0.5519
     116    H55     23.010138   16.964597   24.663222 H          1 MOL1         0.3769
     117    C34     23.695157   15.992311   21.614451 C.3        1 MOL1         0.1018
     118    H56     24.656188   15.577646   21.945945 H          1 MOL1         0.0783
     119    C35     22.997821   15.002241   20.638972 C.3        1 MOL1         0.1043
     120    H57     22.207877   15.548450   20.107217 H          1 MOL1         0.0783
     121    O29     22.412215   13.892652   21.364826 O.3        1 MOL1        -0.3740
     122    C36     23.955692   14.420630   19.575878 C.3        1 MOL1         0.0138
     123    H58     24.331296   15.238926   18.947217 H          1 MOL1         0.0794
     124    H59     23.390137   13.740867   18.924552 H          1 MOL1         0.0794
     125    O30     25.047640   13.728228   20.187729 O.3        1 MOL1        -0.5486
     126    H60     24.648325   13.035894   20.760375 H          1 MOL1         0.3769
     127    C1      19.989890   19.147105   19.287906 C.3        1 MOL1        -0.2400
     128    H1      19.767610   20.221972   19.282373 H          1 MOL1         0.0971
     129    H2      20.806061   18.968896   18.575253 H          1 MOL1         0.0971
     130    H3      19.103655   18.609264   18.924725 H          1 MOL1         0.0971
     131    C2      20.388416   18.672403   20.700403 C.3        1 MOL1        -0.1385
     132    H4      21.294767   19.201308   21.022990 H          1 MOL1         0.0960
     133    H5      20.642808   17.604620   20.666803 H          1 MOL1         0.0960
     134    C3      19.259187   18.911449   21.724935 C.3        1 MOL1        -0.1409
     135    H6      18.962690   19.968263   21.707102 H          1 MOL1         0.0960
     136    H7      18.376107   18.330460   21.437471 H          1 MOL1         0.0960
     137    C4      19.688818   18.515963   23.153274 C.3        1 MOL1        -0.1409
     138    H8      20.574443   19.094733   23.449985 H          1 MOL1         0.0960
     139    H9      19.983079   17.460613   23.163541 H          1 MOL1         0.0960
     140    C5      18.557493   18.727320   24.180067 C.3        1 MOL1        -0.1409
     141    H10     18.228886   19.775888   24.162685 H          1 MOL1         0.0960
     142    H11     17.693200   18.111785   23.900170 H          1 MOL1         0.0960
     143    C6      19.006796   18.345352   25.605336 C.3        1 MOL1        -0.1450
     144    H12     19.863700   18.964868   25.901811 H          1 MOL1         0.0960
     145    H13     19.345377   17.300382   25.617469 H          1 MOL1         0.0960
     146    C7      17.862951   18.525765   26.617341 C.3        1 MOL1         0.0172
     147    H14     17.536864   19.569423   26.622157 H          1 MOL1         0.0934
     148    H15     17.013914   17.900667   26.327277 H          1 MOL1         0.0934
     149    N1      18.259368   18.150804   28.030402 N.4        1 MOL1        -0.5956
     150    H16     18.554680   17.171169   28.094116 H          1 MOL1         0.3624
     151    H17     17.483212   18.274554   28.689206 H          1 MOL1         0.3624
     152    H18     19.037554   18.724139   28.371587 H          1 MOL1         0.3624
@<TRIPOS>BOND
    1     1     2    1
    2     1     3    1
    3     1     4    1
    4     4     5    1
    5     4     6    1
    6     6     7    1
    7     4     8    1
    8     8     9    1
    9     8    10    1
   10    10    11    1
   11     8    12    1
   12    12    13    1
   13    12    14    1
   14    14    15    1
   15     1    16    1
   16    14    16    1
   17    14    17    1
   18    17    18    1
   19    17    19    1
   20    17    20    1
   21    20    21    1
   22    22    23    1
   23    22    24    1
   24    22    25    1
   25    25    26    1
   26    25    27    1
   27    27    28    1
   28    25    29    1
   29    29    30    1
   30    29    31    1
   31    31    32    1
   32     3    33    1
   33    29    33    1
   34    33    34    1
   35    33    35    1
   36    35    36    1
   37    22    37    1
   38    35    37    1
   39    35    38    1
   40    38    39    1
   41    38    40    1
   42    38    41    1
   43    41    42    1
   44    43    44    1
   45    43    45    1
   46    43    46    1
   47    46    47    1
   48    46    48    1
   49    48    49    1
   50    46    50    1
   51    50    51    1
   52    50    52    1
   53    52    53    1
   54    24    54    1
   55    50    54    1
   56    54    55    1
   57    54    56    1
   58    56    57    1
   59    43    58    1
   60    56    58    1
   61    56    59    1
   62    59    60    1
   63    59    61    1
   64    59    62    1
   65    62    63    1
   66    64    65    1
   67    64    66    1
   68    64    67    1
   69    67    68    1
   70    67    69    1
   71    69    70    1
   72    67    71    1
   73    71    72    1
   74    71    73    1
   75    73    74    1
   76    45    75    1
   77    71    75    1
   78    75    76    1
   79    75    77    1
   80    77    78    1
   81    64    79    1
   82    77    79    1
   83    77    80    1
   84    80    81    1
   85    80    82    1
   86    80    83    1
   87    83    84    1
   88    85    86    1
   89    85    87    1
   90    85    88    1
   91    88    89    1
   92    88    90    1
   93    90    91    1
   94    88    92    1
   95    92    93    1
   96    92    94    1
   97    94    95    1
   98    66    96    1
   99    92    96    1
  100    96    97    1
  101    96    98    1
  102    98    99    1
  103    85   100    1
  104    98   100    1
  105    98   101    1
  106   101   102    1
  107   101   103    1
  108   101   104    1
  109   104   105    1
  110   106   107    1
  111    12   108    1
  112   106   108    1
  113   106   109    1
  114   109   110    1
  115   109   111    1
  116   111   112    1
  117   109   113    1
  118   113   114    1
  119   113   115    1
  120   115   116    1
  121    87   117    1
  122   113   117    1
  123   117   118    1
  124   117   119    1
  125   119   120    1
  126   106   121    1
  127   119   121    1
  128   119   122    1
  129   122   123    1
  130   122   124    1
  131   122   125    1
  132   125   126    1
  133   127   128    1
  134   127   129    1
  135   127   130    1
  136   127   131    1
  137   131   132    1
  138   131   133    1
  139   131   134    1
  140   134   135    1
  141   134   136    1
  142   134   137    1
  143   137   138    1
  144   137   139    1
  145   137   140    1
  146   140   141    1
  147   140   142    1
  148   140   143    1
  149   143   144    1
  150   143   145    1
  151   143   146    1
  152   146   147    1
  153   146   148    1
  154   146   149    1
  155   149   150    1
  156   149   151    1
  157   149   152    1
@<TRIPOS>SUBSTRUCTURE
       1 MOL1            1 RESIDUE      1      MOL     
       2 MOL1          152 RESIDUE      1      MOL     
@<SCITEGIC>MOL_PROPERTY
VM2 Rank
SciTegic.value.IntegerValue
1

@<SCITEGIC>MOL_PROPERTY
Conf_Id
SciTegic.value.IntegerValue
15015

@<SCITEGIC>MOL_PROPERTY
Probability
SciTegic.value.DoubleValue
2.46

@<SCITEGIC>MOL_PROPERTY
Sum Probability
SciTegic.value.DoubleValue
2.46

@<SCITEGIC>MOL_PROPERTY
Delta G
SciTegic.value.DoubleValue
0.000

@<SCITEGIC>MOL_PROPERTY
G
SciTegic.value.DoubleValue
566.369

@<SCITEGIC>MOL_PROPERTY
E
SciTegic.value.DoubleValue
364.910

@<SCITEGIC>MOL_PROPERTY
-TS
SciTegic.value.DoubleValue
201.458

@<SCITEGIC>MOL_PROPERTY
U+W
SciTegic.value.DoubleValue
230.774

@<SCITEGIC>MOL_PROPERTY
U
SciTegic.value.DoubleValue
315.923

@<SCITEGIC>MOL_PROPERTY
W
SciTegic.value.DoubleValue
-85.150

@<SCITEGIC>MOL_PROPERTY
W(PB)
SciTegic.value.DoubleValue
-91.390

@<SCITEGIC>MOL_PROPERTY
W(SA)
SciTegic.value.DoubleValue
6.240

@<SCITEGIC>MOL_PROPERTY
Valence
SciTegic.value.DoubleValue
146.714

@<SCITEGIC>MOL_PROPERTY
Coulomb
SciTegic.value.DoubleValue
195.630

@<SCITEGIC>MOL_PROPERTY
VdW
SciTegic.value.DoubleValue
-26.420

@<SCITEGIC>MOL_PROPERTY
VdW6
SciTegic.value.DoubleValue
-177.695

@<SCITEGIC>MOL_PROPERTY
VdW12
SciTegic.value.DoubleValue
151.275

@<SCITEGIC>MOL_PROPERTY
Bond
SciTegic.value.DoubleValue
4.391

@<SCITEGIC>MOL_PROPERTY
Angle
SciTegic.value.DoubleValue
10.020

@<SCITEGIC>MOL_PROPERTY
Pdih
SciTegic.value.DoubleValue
132.303

@<SCITEGIC>MOL_PROPERTY
Idih
SciTegic.value.DoubleValue
0.000

@<SCITEGIC>MOL_PROPERTY
Tether
SciTegic.value.DoubleValue
0.000

