@<TRIPOS>MOLECULE
CD_guest-s20_vm2_single.mol2 : vm2 host+ligand conformer 1
         143         148           2
SMALL
USER_CHARGES
 
@<TRIPOS>ATOM
       1    C1      16.306916   15.188129   20.929823 C.3        1 MOL1         0.2972
       2    H1      15.256510   14.987308   20.683987 H          1 MOL1         0.0751
       3    O1      16.517443   16.569497   21.285982 O.3        1 MOL1        -0.3740
       4    C2      16.765028   14.300960   22.115001 C.3        1 MOL1         0.1003
       5    H2      16.632753   13.254767   21.809840 H          1 MOL1         0.0783
       6    O2      15.981222   14.550575   23.289792 O.3        1 MOL1        -0.5519
       7    H3      16.439089   14.049409   24.001910 H          1 MOL1         0.3769
       8    C3      18.264758   14.516939   22.431005 C.3        1 MOL1         0.1053
       9    H4      18.390037   15.543829   22.802199 H          1 MOL1         0.0783
      10    O3      18.657218   13.583116   23.444251 O.3        1 MOL1        -0.5519
      11    H5      19.462393   13.970653   23.868922 H          1 MOL1         0.3769
      12    C4      19.136576   14.354533   21.152902 C.3        1 MOL1         0.1018
      13    H6      19.193906   13.295138   20.870226 H          1 MOL1         0.0783
      14    C5      18.555815   15.167458   19.964366 C.3        1 MOL1         0.1043
      15    H7      18.689294   16.234627   20.180778 H          1 MOL1         0.0783
      16    O4      17.147227   14.874263   19.799827 O.3        1 MOL1        -0.3740
      17    C6      19.255681   14.866513   18.620653 C.3        1 MOL1         0.0138
      18    H8      20.323296   15.105923   18.709577 H          1 MOL1         0.0794
      19    H9      18.834717   15.525555   17.849674 H          1 MOL1         0.0794
      20    O5      19.085406   13.495740   18.248376 O.3        1 MOL1        -0.5486
      21    H10     18.117353   13.326348   18.275382 H          1 MOL1         0.3769
      22    C7      14.633529   20.272378   21.329118 C.3        1 MOL1         0.2972
      23    H11     13.908491   21.095430   21.304876 H          1 MOL1         0.0751
      24    O6      15.991874   20.753945   21.350712 O.3        1 MOL1        -0.3740
      25    C8      14.401607   19.399033   22.587450 C.3        1 MOL1         0.1003
      26    H12     13.380426   19.000902   22.525971 H          1 MOL1         0.0783
      27    O7      14.534972   20.168368   23.790644 O.3        1 MOL1        -0.5519
      28    H13     14.545591   19.498268   24.510855 H          1 MOL1         0.3769
      29    C9      15.377291   18.200180   22.617616 C.3        1 MOL1         0.1053
      30    H14     16.392369   18.590284   22.760586 H          1 MOL1         0.0783
      31    O8      15.024335   17.328776   23.698679 O.3        1 MOL1        -0.5519
      32    H15     15.506614   16.478295   23.547880 H          1 MOL1         0.3769
      33    C10     15.349969   17.414715   21.284666 C.3        1 MOL1         0.1018
      34    H16     14.419307   16.833488   21.243451 H          1 MOL1         0.0783
      35    C11     15.440445   18.349934   20.047890 C.3        1 MOL1         0.1043
      36    H17     16.454437   18.767702   20.006087 H          1 MOL1         0.0783
      37    O9      14.475251   19.424416   20.171708 O.3        1 MOL1        -0.3740
      38    C12     15.164562   17.628034   18.710448 C.3        1 MOL1         0.0138
      39    H18     15.932498   16.860455   18.549731 H          1 MOL1         0.0794
      40    H19     15.254365   18.355201   17.892484 H          1 MOL1         0.0794
      41    O10     13.863070   17.033822   18.706068 O.3        1 MOL1        -0.5486
      42    H20     13.230379   17.760992   18.899352 H          1 MOL1         0.3769
      43    C13     18.422724   24.045614   20.904394 C.3        1 MOL1         0.2972
      44    H21     18.882226   25.022806   20.707835 H          1 MOL1         0.0751
      45    O11     19.425621   23.022039   21.086423 O.3        1 MOL1        -0.3740
      46    C14     17.487880   24.110143   22.143593 C.3        1 MOL1         0.1003
      47    H22     16.680776   24.813054   21.900796 H          1 MOL1         0.0783
      48    O12     18.186318   24.598894   23.298706 O.3        1 MOL1        -0.5519
      49    H23     18.799599   23.876375   23.583620 H          1 MOL1         0.3769
      50    C15     16.841869   22.723801   22.405167 C.3        1 MOL1         0.1053
      51    H24     17.634956   22.028149   22.712461 H          1 MOL1         0.0783
      52    O13     15.847068   22.814124   23.432931 O.3        1 MOL1        -0.5519
      53    H25     15.491248   21.900792   23.564843 H          1 MOL1         0.3769
      54    C16     16.175162   22.163580   21.122495 C.3        1 MOL1         0.1018
      55    H26     15.221827   22.685361   20.966325 H          1 MOL1         0.0783
      56    C17     17.050137   22.318314   19.848482 C.3        1 MOL1         0.1043
      57    H27     17.862332   21.582973   19.891828 H          1 MOL1         0.0783
      58    O14     17.605080   23.655665   19.781750 O.3        1 MOL1        -0.3740
      59    C18     16.263378   22.071725   18.542253 C.3        1 MOL1         0.0138
      60    H28     15.862587   21.049806   18.551247 H          1 MOL1         0.0794
      61    H29     16.957244   22.144490   17.694206 H          1 MOL1         0.0794
      62    O15     15.200265   23.018002   18.395605 O.3        1 MOL1        -0.5486
      63    H30     15.615589   23.906545   18.463488 H          1 MOL1         0.3769
      64    C19     23.434449   22.507302   22.058610 C.3        1 MOL1         0.2972
      65    H31     24.470894   22.634654   22.395076 H          1 MOL1         0.0751
      66    O16     23.259234   21.274815   21.328114 O.3        1 MOL1        -0.3740
      67    C20     22.468164   22.514326   23.272206 C.3        1 MOL1         0.1003
      68    H32     22.565560   23.492931   23.759571 H          1 MOL1         0.0783
      69    O17     22.836878   21.492106   24.213941 O.3        1 MOL1        -0.5519
      70    H33     22.014050   20.992781   24.461692 H          1 MOL1         0.3769
      71    C21     20.998424   22.371761   22.798052 C.3        1 MOL1         0.1053
      72    H34     20.873322   21.371935   22.361636 H          1 MOL1         0.0783
      73    O18     20.108609   22.536050   23.909340 O.3        1 MOL1        -0.5519
      74    H35     20.143256   21.679022   24.410074 H          1 MOL1         0.3769
      75    C22     20.662326   23.425085   21.709355 C.3        1 MOL1         0.1018
      76    H36     20.574931   24.407968   22.190634 H          1 MOL1         0.0783
      77    C23     21.741164   23.489054   20.593107 C.3        1 MOL1         0.1043
      78    H37     21.676365   22.568957   19.997038 H          1 MOL1         0.0783
      79    O19     23.057295   23.596109   21.189148 O.3        1 MOL1        -0.3740
      80    C24     21.563502   24.683713   19.629350 C.3        1 MOL1         0.0138
      81    H38     20.621480   24.561916   19.078400 H          1 MOL1         0.0794
      82    H39     22.377025   24.665472   18.891755 H          1 MOL1         0.0794
      83    O20     21.563518   25.926663   20.337796 O.3        1 MOL1        -0.5486
      84    H40     22.413054   25.961665   20.831343 H          1 MOL1         0.3769
      85    C25     25.148321   17.660118   20.695940 C.3        1 MOL1         0.2972
      86    H41     25.802174   16.820921   20.426126 H          1 MOL1         0.0751
      87    O21     23.802270   17.212882   20.963550 O.3        1 MOL1        -0.3740
      88    C26     25.711578   18.440410   21.913559 C.3        1 MOL1         0.1003
      89    H42     26.670318   18.873652   21.601070 H          1 MOL1         0.0783
      90    O22     25.949072   17.566514   23.027733 O.3        1 MOL1        -0.5519
      91    H43     25.061835   17.347521   23.406930 H          1 MOL1         0.3769
      92    C27     24.765893   19.612829   22.289060 C.3        1 MOL1         0.1053
      93    H44     23.820915   19.186169   22.653156 H          1 MOL1         0.0783
      94    O23     25.364108   20.409603   23.318185 O.3        1 MOL1        -0.5519
      95    H45     24.609284   20.818908   23.808251 H          1 MOL1         0.3769
      96    C28     24.446349   20.503030   21.051653 C.3        1 MOL1         0.1018
      97    H46     25.302835   21.156367   20.839013 H          1 MOL1         0.0783
      98    C29     24.118926   19.676395   19.776940 C.3        1 MOL1         0.1043
      99    H47     23.108780   19.260114   19.887473 H          1 MOL1         0.0783
     100    O24     25.075846   18.600120   19.604833 O.3        1 MOL1        -0.3740
     101    C30     24.132332   20.529306   18.489032 C.3        1 MOL1         0.0138
     102    H48     23.401991   21.343114   18.590512 H          1 MOL1         0.0794
     103    H49     23.811128   19.901266   17.647395 H          1 MOL1         0.0794
     104    O25     25.435837   21.063893   18.239444 O.3        1 MOL1        -0.5486
     105    H50     26.049903   20.295951   18.246800 H          1 MOL1         0.3769
     106    C31     21.411132   14.058559   22.067058 C.3        1 MOL1         0.2972
     107    H51     20.961887   13.116530   22.405170 H          1 MOL1         0.0751
     108    O26     20.449294   14.900507   21.395709 O.3        1 MOL1        -0.3740
     109    C32     22.001171   14.841854   23.266662 C.3        1 MOL1         0.1003
     110    H52     22.800242   14.225784   23.698625 H          1 MOL1         0.0783
     111    O27     20.993075   15.062233   24.267402 O.3        1 MOL1        -0.5519
     112    H53     20.980071   16.035947   24.467752 H          1 MOL1         0.3769
     113    C33     22.638298   16.170286   22.782710 C.3        1 MOL1         0.1053
     114    H54     21.839917   16.818726   22.405304 H          1 MOL1         0.0783
     115    O28     23.297596   16.822123   23.874766 O.3        1 MOL1        -0.5519
     116    H55     22.574887   17.277274   24.383576 H          1 MOL1         0.3769
     117    C34     23.635314   15.938469   21.615925 C.3        1 MOL1         0.1018
     118    H56     24.579095   15.553725   22.023687 H          1 MOL1         0.0783
     119    C35     23.088615   14.962897   20.534642 C.3        1 MOL1         0.1043
     120    H57     22.323977   15.492834   19.951510 H          1 MOL1         0.0783
     121    O29     22.497745   13.794648   21.155049 O.3        1 MOL1        -0.3740
     122    C36     24.170071   14.476250   19.544633 C.3        1 MOL1         0.0138
     123    H58     24.551537   15.337167   18.979862 H          1 MOL1         0.0794
     124    H59     23.704410   13.792406   18.822280 H          1 MOL1         0.0794
     125    O30     25.241897   13.820865   20.228718 O.3        1 MOL1        -0.5486
     126    H60     24.833703   13.086751   20.739747 H          1 MOL1         0.3769
     127    C1      20.237152   18.846471   24.387717 C.2        1 MOL1         0.6132
     128    O1      20.553893   19.951310   24.787074 O.co2      1 MOL1        -0.6749
     129    O2      20.819401   17.824760   24.701662 O.co2      1 MOL1        -0.6749
     130    C2      19.073950   18.743263   23.406926 C.3        1 MOL1        -0.1955
     131    H1      18.518801   19.688634   23.430152 H          1 MOL1         0.0733
     132    H2      18.399800   17.962637   23.776251 H          1 MOL1         0.0733
     133    C3      19.525874   18.418353   21.996001 C.2        1 MOL1        -0.1395
     134    H3      19.862207   17.397524   21.846681 H          1 MOL1         0.0816
     135    C4      19.550012   19.289730   20.983968 C.2        1 MOL1        -0.1394
     136    H4      19.216279   20.313339   21.135608 H          1 MOL1         0.0816
     137    C5      20.084603   18.973184   19.603820 C.3        1 MOL1        -0.1826
     138    H5      20.768756   19.772274   19.289497 H          1 MOL1         0.0736
     139    H6      20.674817   18.046749   19.628619 H          1 MOL1         0.0736
     140    C6      18.957482   18.833443   18.561951 C.3        1 MOL1        -0.2882
     141    H7      19.374335   18.621328   17.569210 H          1 MOL1         0.0749
     142    H8      18.279811   18.013999   18.825460 H          1 MOL1         0.0749
     143    H9      18.370403   19.756678   18.492642 H          1 MOL1         0.0749
@<TRIPOS>BOND
    1     1     2    1
    2     1     3    1
    3     1     4    1
    4     4     5    1
    5     4     6    1
    6     6     7    1
    7     4     8    1
    8     8     9    1
    9     8    10    1
   10    10    11    1
   11     8    12    1
   12    12    13    1
   13    12    14    1
   14    14    15    1
   15     1    16    1
   16    14    16    1
   17    14    17    1
   18    17    18    1
   19    17    19    1
   20    17    20    1
   21    20    21    1
   22    22    23    1
   23    22    24    1
   24    22    25    1
   25    25    26    1
   26    25    27    1
   27    27    28    1
   28    25    29    1
   29    29    30    1
   30    29    31    1
   31    31    32    1
   32     3    33    1
   33    29    33    1
   34    33    34    1
   35    33    35    1
   36    35    36    1
   37    22    37    1
   38    35    37    1
   39    35    38    1
   40    38    39    1
   41    38    40    1
   42    38    41    1
   43    41    42    1
   44    43    44    1
   45    43    45    1
   46    43    46    1
   47    46    47    1
   48    46    48    1
   49    48    49    1
   50    46    50    1
   51    50    51    1
   52    50    52    1
   53    52    53    1
   54    24    54    1
   55    50    54    1
   56    54    55    1
   57    54    56    1
   58    56    57    1
   59    43    58    1
   60    56    58    1
   61    56    59    1
   62    59    60    1
   63    59    61    1
   64    59    62    1
   65    62    63    1
   66    64    65    1
   67    64    66    1
   68    64    67    1
   69    67    68    1
   70    67    69    1
   71    69    70    1
   72    67    71    1
   73    71    72    1
   74    71    73    1
   75    73    74    1
   76    45    75    1
   77    71    75    1
   78    75    76    1
   79    75    77    1
   80    77    78    1
   81    64    79    1
   82    77    79    1
   83    77    80    1
   84    80    81    1
   85    80    82    1
   86    80    83    1
   87    83    84    1
   88    85    86    1
   89    85    87    1
   90    85    88    1
   91    88    89    1
   92    88    90    1
   93    90    91    1
   94    88    92    1
   95    92    93    1
   96    92    94    1
   97    94    95    1
   98    66    96    1
   99    92    96    1
  100    96    97    1
  101    96    98    1
  102    98    99    1
  103    85   100    1
  104    98   100    1
  105    98   101    1
  106   101   102    1
  107   101   103    1
  108   101   104    1
  109   104   105    1
  110   106   107    1
  111    12   108    1
  112   106   108    1
  113   106   109    1
  114   109   110    1
  115   109   111    1
  116   111   112    1
  117   109   113    1
  118   113   114    1
  119   113   115    1
  120   115   116    1
  121    87   117    1
  122   113   117    1
  123   117   118    1
  124   117   119    1
  125   119   120    1
  126   106   121    1
  127   119   121    1
  128   119   122    1
  129   122   123    1
  130   122   124    1
  131   122   125    1
  132   125   126    1
  133   127   128    1
  134   127   129    2
  135   127   130    1
  136   130   131    1
  137   130   132    1
  138   130   133    1
  139   133   134    1
  140   133   135    2
  141   135   136    1
  142   135   137    1
  143   137   138    1
  144   137   139    1
  145   137   140    1
  146   140   141    1
  147   140   142    1
  148   140   143    1
@<TRIPOS>SUBSTRUCTURE
       1 MOL1            1 RESIDUE      1      MOL     
       2 MOL1          143 RESIDUE      1      MOL     
@<SCITEGIC>MOL_PROPERTY
VM2 Rank
SciTegic.value.IntegerValue
1

@<SCITEGIC>MOL_PROPERTY
Conf_Id
SciTegic.value.IntegerValue
11137

@<SCITEGIC>MOL_PROPERTY
Probability
SciTegic.value.DoubleValue
1.07

@<SCITEGIC>MOL_PROPERTY
Sum Probability
SciTegic.value.DoubleValue
1.07

@<SCITEGIC>MOL_PROPERTY
Delta G
SciTegic.value.DoubleValue
0.000

@<SCITEGIC>MOL_PROPERTY
G
SciTegic.value.DoubleValue
490.294

@<SCITEGIC>MOL_PROPERTY
E
SciTegic.value.DoubleValue
304.907

@<SCITEGIC>MOL_PROPERTY
-TS
SciTegic.value.DoubleValue
185.387

@<SCITEGIC>MOL_PROPERTY
U+W
SciTegic.value.DoubleValue
178.819

@<SCITEGIC>MOL_PROPERTY
U
SciTegic.value.DoubleValue
239.792

@<SCITEGIC>MOL_PROPERTY
W
SciTegic.value.DoubleValue
-60.973

@<SCITEGIC>MOL_PROPERTY
W(PB)
SciTegic.value.DoubleValue
-67.055

@<SCITEGIC>MOL_PROPERTY
W(SA)
SciTegic.value.DoubleValue
6.081

@<SCITEGIC>MOL_PROPERTY
Valence
SciTegic.value.DoubleValue
158.933

@<SCITEGIC>MOL_PROPERTY
Coulomb
SciTegic.value.DoubleValue
101.232

@<SCITEGIC>MOL_PROPERTY
VdW
SciTegic.value.DoubleValue
-20.373

@<SCITEGIC>MOL_PROPERTY
VdW6
SciTegic.value.DoubleValue
-181.247

@<SCITEGIC>MOL_PROPERTY
VdW12
SciTegic.value.DoubleValue
160.875

@<SCITEGIC>MOL_PROPERTY
Bond
SciTegic.value.DoubleValue
5.041

@<SCITEGIC>MOL_PROPERTY
Angle
SciTegic.value.DoubleValue
12.050

@<SCITEGIC>MOL_PROPERTY
Pdih
SciTegic.value.DoubleValue
141.834

@<SCITEGIC>MOL_PROPERTY
Idih
SciTegic.value.DoubleValue
0.009

@<SCITEGIC>MOL_PROPERTY
Tether
SciTegic.value.DoubleValue
0.000

