@<TRIPOS>MOLECULE
CD_guest-1_vm2_single.mol2 : vm2 host+ligand conformer 1
         143         148           2
SMALL
USER_CHARGES
 
@<TRIPOS>ATOM
       1    C1      16.418664   15.340358   21.829147 C.3        1 MOL1         0.2972
       2    H1      15.365369   15.242537   22.121091 H          1 MOL1         0.0751
       3    O1      16.669928   16.587007   21.148883 O.3        1 MOL1        -0.3740
       4    C2      17.336166   15.255037   23.076177 C.3        1 MOL1         0.1003
       5    H2      17.167352   14.271805   23.534454 H          1 MOL1         0.0783
       6    O2      17.029336   16.280122   24.035135 O.3        1 MOL1        -0.5519
       7    H3      16.122404   16.611137   23.827073 H          1 MOL1         0.3769
       8    C3      18.824174   15.348825   22.668749 C.3        1 MOL1         0.1053
       9    H4      19.005719   16.362583   22.287059 H          1 MOL1         0.0783
      10    O3      19.633363   15.115655   23.825160 O.3        1 MOL1        -0.5519
      11    H5      19.230787   15.679473   24.524058 H          1 MOL1         0.3769
      12    C4      19.179531   14.338773   21.547237 C.3        1 MOL1         0.1018
      13    H6      19.262015   13.334938   21.984321 H          1 MOL1         0.0783
      14    C5      18.131845   14.331643   20.398387 C.3        1 MOL1         0.1043
      15    H7      18.247671   15.258933   19.821572 H          1 MOL1         0.0783
      16    O4      16.790043   14.263569   20.942364 O.3        1 MOL1        -0.3740
      17    C6      18.305903   13.149586   19.418904 C.3        1 MOL1         0.0138
      18    H8      19.272766   13.248310   18.907800 H          1 MOL1         0.0794
      19    H9      17.523295   13.208938   18.650689 H          1 MOL1         0.0794
      20    O5      18.236216   11.895181   20.103006 O.3        1 MOL1        -0.5486
      21    H10     17.364429   11.876672   20.557223 H          1 MOL1         0.3769
      22    C7      14.821716   20.255468   20.571176 C.3        1 MOL1         0.2972
      23    H11     14.160937   21.087975   20.297240 H          1 MOL1         0.0751
      24    O6      16.142533   20.720463   20.916684 O.3        1 MOL1        -0.3740
      25    C8      14.227396   19.427205   21.742303 C.3        1 MOL1         0.1003
      26    H12     13.274995   19.012580   21.386885 H          1 MOL1         0.0783
      27    O7      13.972463   20.232196   22.903006 O.3        1 MOL1        -0.5519
      28    H13     14.849894   20.560900   23.224464 H          1 MOL1         0.3769
      29    C9      15.153946   18.240478   22.103187 C.3        1 MOL1         0.1053
      30    H14     16.084430   18.650372   22.520818 H          1 MOL1         0.0783
      31    O8      14.495796   17.430355   23.083758 O.3        1 MOL1        -0.5519
      32    H15     14.054141   18.070759   23.687304 H          1 MOL1         0.3769
      33    C10     15.518584   17.400287   20.845544 C.3        1 MOL1         0.1018
      34    H16     14.660808   16.783208   20.546359 H          1 MOL1         0.0783
      35    C11     15.937018   18.289526   19.645787 C.3        1 MOL1         0.1043
      36    H17     16.924982   18.713190   19.859396 H          1 MOL1         0.0783
      37    O9      14.967420   19.350241   19.456839 O.3        1 MOL1        -0.3740
      38    C12     16.034503   17.493327   18.328494 C.3        1 MOL1         0.0138
      39    H18     15.029825   17.174813   18.019757 H          1 MOL1         0.0794
      40    H19     16.635663   16.589488   18.493944 H          1 MOL1         0.0794
      41    O10     16.643220   18.300681   17.318559 O.3        1 MOL1        -0.5486
      42    H20     16.116072   19.128969   17.274359 H          1 MOL1         0.3769
      43    C13     18.415030   23.947334   22.028305 C.3        1 MOL1         0.2972
      44    H21     18.845650   24.898556   22.366633 H          1 MOL1         0.0751
      45    O11     19.393416   23.118499   21.369448 O.3        1 MOL1        -0.3740
      46    C14     17.817414   23.161996   23.223485 C.3        1 MOL1         0.1003
      47    H22     17.004740   23.771515   23.639781 H          1 MOL1         0.0783
      48    O12     18.795931   22.918768   24.246859 O.3        1 MOL1        -0.5519
      49    H23     19.588128   23.468306   24.031254 H          1 MOL1         0.3769
      50    C15     17.218943   21.821231   22.742281 C.3        1 MOL1         0.1053
      51    H24     18.050529   21.187549   22.408004 H          1 MOL1         0.0783
      52    O13     16.544584   21.190675   23.835246 O.3        1 MOL1        -0.5519
      53    H25     17.175112   21.261435   24.587385 H          1 MOL1         0.3769
      54    C16     16.246644   22.010026   21.549197 C.3        1 MOL1         0.1018
      55    H26     15.280016   22.362334   21.932627 H          1 MOL1         0.0783
      56    C17     16.781814   22.997678   20.471771 C.3        1 MOL1         0.1043
      57    H27     17.564911   22.485155   19.897490 H          1 MOL1         0.0783
      58    O14     17.338188   24.182437   21.096768 O.3        1 MOL1        -0.3740
      59    C18     15.701001   23.456101   19.467664 C.3        1 MOL1         0.0138
      60    H28     15.355036   22.587096   18.892624 H          1 MOL1         0.0794
      61    H29     16.155541   24.157790   18.755467 H          1 MOL1         0.0794
      62    O15     14.599048   24.074068   20.138292 O.3        1 MOL1        -0.5486
      63    H30     14.973104   24.826458   20.648853 H          1 MOL1         0.3769
      64    C19     23.477241   22.752054   20.878371 C.3        1 MOL1         0.2972
      65    H31     24.542427   22.877897   20.645271 H          1 MOL1         0.0751
      66    O16     23.151368   21.364861   21.112486 O.3        1 MOL1        -0.3740
      67    C20     23.066636   23.619926   22.099803 C.3        1 MOL1         0.1003
      68    H32     23.247300   24.666124   21.820318 H          1 MOL1         0.0783
      69    O17     23.841400   23.317641   23.269466 O.3        1 MOL1        -0.5519
      70    H33     23.617272   22.388143   23.528264 H          1 MOL1         0.3769
      71    C21     21.557104   23.466781   22.403576 C.3        1 MOL1         0.1053
      72    H34     21.384719   22.438478   22.751487 H          1 MOL1         0.0783
      73    O18     21.196607   24.395441   23.431980 O.3        1 MOL1        -0.5519
      74    H35     21.948775   24.376903   24.066926 H          1 MOL1         0.3769
      75    C22     20.690468   23.697202   21.134645 C.3        1 MOL1         0.1018
      76    H36     20.621577   24.770688   20.913428 H          1 MOL1         0.0783
      77    C23     21.250193   22.960645   19.890928 C.3        1 MOL1         0.1043
      78    H37     21.050700   21.891498   20.016040 H          1 MOL1         0.0783
      79    O19     22.674313   23.199795   19.766860 O.3        1 MOL1        -0.3740
      80    C24     20.577507   23.418387   18.580980 C.3        1 MOL1         0.0138
      81    H38     20.832076   24.469196   18.388486 H          1 MOL1         0.0794
      82    H39     19.487075   23.352968   18.691076 H          1 MOL1         0.0794
      83    O20     21.007842   22.588287   17.500081 O.3        1 MOL1        -0.5486
      84    H40     21.988995   22.635369   17.496492 H          1 MOL1         0.3769
      85    C25     24.795934   17.703307   22.151458 C.3        1 MOL1         0.2972
      86    H41     25.430404   16.879755   22.503544 H          1 MOL1         0.0751
      87    O21     23.654764   17.218877   21.415718 O.3        1 MOL1        -0.3740
      88    C26     24.305711   18.559943   23.348733 C.3        1 MOL1         0.1003
      89    H42     25.198923   18.965133   23.841948 H          1 MOL1         0.0783
      90    O22     23.558953   17.780937   24.296996 O.3        1 MOL1        -0.5519
      91    H43     23.740880   16.829570   24.103679 H          1 MOL1         0.3769
      92    C27     23.446097   19.747124   22.859263 C.3        1 MOL1         0.1053
      93    H44     22.517747   19.337477   22.441830 H          1 MOL1         0.0783
      94    O23     23.144927   20.593205   23.973097 O.3        1 MOL1        -0.5519
      95    H45     22.853389   19.974142   24.680228 H          1 MOL1         0.3769
      96    C28     24.161680   20.556172   21.748677 C.3        1 MOL1         0.1018
      97    H46     24.948003   21.167733   22.210244 H          1 MOL1         0.0783
      98    C29     24.785088   19.642731   20.655560 C.3        1 MOL1         0.1043
      99    H47     23.970506   19.216799   20.055711 H          1 MOL1         0.0783
     100    O24     25.543890   18.572907   21.274392 O.3        1 MOL1        -0.3740
     101    C30     25.728569   20.393903   19.689975 C.3        1 MOL1         0.0138
     102    H48     25.145309   21.128362   19.119014 H          1 MOL1         0.0794
     103    H49     26.142447   19.675379   18.969833 H          1 MOL1         0.0794
     104    O25     26.783605   21.048268   20.400302 O.3        1 MOL1        -0.5486
     105    H50     27.253949   20.347287   20.904212 H          1 MOL1         0.3769
     106    C31     21.465389   13.799792   20.789137 C.3        1 MOL1         0.2972
     107    H51     21.050685   12.815649   20.535426 H          1 MOL1         0.0751
     108    O26     20.423301   14.783341   20.972829 O.3        1 MOL1        -0.3740
     109    C32     22.360571   13.726435   22.054908 C.3        1 MOL1         0.1003
     110    H52     23.207591   13.072880   21.808395 H          1 MOL1         0.0783
     111    O27     21.666484   13.172087   23.181813 O.3        1 MOL1        -0.5519
     112    H53     20.953263   13.815779   23.422517 H          1 MOL1         0.3769
     113    C33     22.926475   15.124552   22.402838 C.3        1 MOL1         0.1053
     114    H54     22.088047   15.759354   22.722132 H          1 MOL1         0.0783
     115    O28     23.867795   14.988459   23.473299 O.3        1 MOL1        -0.5519
     116    H55     23.466432   14.328378   24.083505 H          1 MOL1         0.3769
     117    C34     23.597271   15.798839   21.172835 C.3        1 MOL1         0.1018
     118    H56     24.598674   15.375774   21.016616 H          1 MOL1         0.0783
     119    C35     22.779065   15.635678   19.864209 C.3        1 MOL1         0.1043
     120    H57     21.917892   16.310823   19.912210 H          1 MOL1         0.0783
     121    O29     22.318400   14.269221   19.723436 O.3        1 MOL1        -0.3740
     122    C36     23.611862   15.999602   18.616091 C.3        1 MOL1         0.0138
     123    H58     24.385532   15.235719   18.460602 H          1 MOL1         0.0794
     124    H59     24.121031   16.957147   18.789541 H          1 MOL1         0.0794
     125    O30     22.765711   16.102803   17.468456 O.3        1 MOL1        -0.5486
     126    H60     22.294674   15.241966   17.400086 H          1 MOL1         0.3769
     127    N1      22.096217   18.816242   16.558648 N.4        1 MOL1        -0.5891
     128    H1      22.850351   19.483484   16.739616 H          1 MOL1         0.3726
     129    H2      21.932902   18.808703   15.547612 H          1 MOL1         0.3726
     130    H3      22.444071   17.875487   16.811369 H          1 MOL1         0.3726
     131    C1      20.836898   19.155119   17.329234 C.3        1 MOL1         0.0314
     132    H4      20.081255   18.407500   17.072282 H          1 MOL1         0.0999
     133    H5      20.479328   20.134912   16.999002 H          1 MOL1         0.0999
     134    C2      21.052957   19.165310   18.851862 C.3        1 MOL1        -0.1308
     135    H6      21.601243   18.265533   19.143918 H          1 MOL1         0.1025
     136    H7      21.684825   20.017308   19.127644 H          1 MOL1         0.1025
     137    C3      19.709603   19.210401   19.610576 C.3        1 MOL1        -0.1243
     138    H8      19.096489   18.353373   19.298426 H          1 MOL1         0.1025
     139    H9      19.152126   20.117449   19.335506 H          1 MOL1         0.1025
     140    C4      19.901396   19.162152   21.141400 C.3        1 MOL1        -0.2258
     141    H10     18.929789   19.115545   21.650570 H          1 MOL1         0.1036
     142    H11     20.429122   20.054427   21.502890 H          1 MOL1         0.1036
     143    H12     20.477371   18.276202   21.440587 H          1 MOL1         0.1036
@<TRIPOS>BOND
    1     1     2    1
    2     1     3    1
    3     1     4    1
    4     4     5    1
    5     4     6    1
    6     6     7    1
    7     4     8    1
    8     8     9    1
    9     8    10    1
   10    10    11    1
   11     8    12    1
   12    12    13    1
   13    12    14    1
   14    14    15    1
   15     1    16    1
   16    14    16    1
   17    14    17    1
   18    17    18    1
   19    17    19    1
   20    17    20    1
   21    20    21    1
   22    22    23    1
   23    22    24    1
   24    22    25    1
   25    25    26    1
   26    25    27    1
   27    27    28    1
   28    25    29    1
   29    29    30    1
   30    29    31    1
   31    31    32    1
   32     3    33    1
   33    29    33    1
   34    33    34    1
   35    33    35    1
   36    35    36    1
   37    22    37    1
   38    35    37    1
   39    35    38    1
   40    38    39    1
   41    38    40    1
   42    38    41    1
   43    41    42    1
   44    43    44    1
   45    43    45    1
   46    43    46    1
   47    46    47    1
   48    46    48    1
   49    48    49    1
   50    46    50    1
   51    50    51    1
   52    50    52    1
   53    52    53    1
   54    24    54    1
   55    50    54    1
   56    54    55    1
   57    54    56    1
   58    56    57    1
   59    43    58    1
   60    56    58    1
   61    56    59    1
   62    59    60    1
   63    59    61    1
   64    59    62    1
   65    62    63    1
   66    64    65    1
   67    64    66    1
   68    64    67    1
   69    67    68    1
   70    67    69    1
   71    69    70    1
   72    67    71    1
   73    71    72    1
   74    71    73    1
   75    73    74    1
   76    45    75    1
   77    71    75    1
   78    75    76    1
   79    75    77    1
   80    77    78    1
   81    64    79    1
   82    77    79    1
   83    77    80    1
   84    80    81    1
   85    80    82    1
   86    80    83    1
   87    83    84    1
   88    85    86    1
   89    85    87    1
   90    85    88    1
   91    88    89    1
   92    88    90    1
   93    90    91    1
   94    88    92    1
   95    92    93    1
   96    92    94    1
   97    94    95    1
   98    66    96    1
   99    92    96    1
  100    96    97    1
  101    96    98    1
  102    98    99    1
  103    85   100    1
  104    98   100    1
  105    98   101    1
  106   101   102    1
  107   101   103    1
  108   101   104    1
  109   104   105    1
  110   106   107    1
  111    12   108    1
  112   106   108    1
  113   106   109    1
  114   109   110    1
  115   109   111    1
  116   111   112    1
  117   109   113    1
  118   113   114    1
  119   113   115    1
  120   115   116    1
  121    87   117    1
  122   113   117    1
  123   117   118    1
  124   117   119    1
  125   119   120    1
  126   106   121    1
  127   119   121    1
  128   119   122    1
  129   122   123    1
  130   122   124    1
  131   122   125    1
  132   125   126    1
  133   127   128    1
  134   127   129    1
  135   127   130    1
  136   127   131    1
  137   131   132    1
  138   131   133    1
  139   131   134    1
  140   134   135    1
  141   134   136    1
  142   134   137    1
  143   137   138    1
  144   137   139    1
  145   137   140    1
  146   140   141    1
  147   140   142    1
  148   140   143    1
@<TRIPOS>SUBSTRUCTURE
       1 MOL1            1 RESIDUE      1      MOL     
       2 MOL1          143 RESIDUE      1      MOL     
@<SCITEGIC>MOL_PROPERTY
VM2 Rank
SciTegic.value.IntegerValue
1

@<SCITEGIC>MOL_PROPERTY
Conf_Id
SciTegic.value.IntegerValue
21762

@<SCITEGIC>MOL_PROPERTY
Probability
SciTegic.value.DoubleValue
2.01

@<SCITEGIC>MOL_PROPERTY
Sum Probability
SciTegic.value.DoubleValue
2.01

@<SCITEGIC>MOL_PROPERTY
Delta G
SciTegic.value.DoubleValue
0.000

@<SCITEGIC>MOL_PROPERTY
G
SciTegic.value.DoubleValue
538.532

@<SCITEGIC>MOL_PROPERTY
E
SciTegic.value.DoubleValue
351.358

@<SCITEGIC>MOL_PROPERTY
-TS
SciTegic.value.DoubleValue
187.174

@<SCITEGIC>MOL_PROPERTY
U+W
SciTegic.value.DoubleValue
225.270

@<SCITEGIC>MOL_PROPERTY
U
SciTegic.value.DoubleValue
298.247

@<SCITEGIC>MOL_PROPERTY
W
SciTegic.value.DoubleValue
-72.978

@<SCITEGIC>MOL_PROPERTY
W(PB)
SciTegic.value.DoubleValue
-78.985

@<SCITEGIC>MOL_PROPERTY
W(SA)
SciTegic.value.DoubleValue
6.008

@<SCITEGIC>MOL_PROPERTY
Valence
SciTegic.value.DoubleValue
143.603

@<SCITEGIC>MOL_PROPERTY
Coulomb
SciTegic.value.DoubleValue
172.871

@<SCITEGIC>MOL_PROPERTY
VdW
SciTegic.value.DoubleValue
-18.227

@<SCITEGIC>MOL_PROPERTY
VdW6
SciTegic.value.DoubleValue
-164.377

@<SCITEGIC>MOL_PROPERTY
VdW12
SciTegic.value.DoubleValue
146.151

@<SCITEGIC>MOL_PROPERTY
Bond
SciTegic.value.DoubleValue
4.429

@<SCITEGIC>MOL_PROPERTY
Angle
SciTegic.value.DoubleValue
10.610

@<SCITEGIC>MOL_PROPERTY
Pdih
SciTegic.value.DoubleValue
128.564

@<SCITEGIC>MOL_PROPERTY
Idih
SciTegic.value.DoubleValue
0.000

@<SCITEGIC>MOL_PROPERTY
Tether
SciTegic.value.DoubleValue
0.000

@<TRIPOS>MOLECULE
CD_guest-1_vm2_single.mol2 : vm2 host+ligand conformer 2
         143         148           2
SMALL
USER_CHARGES
 
@<TRIPOS>ATOM
       1    C1      16.269419   15.160477   21.824652 C.3        1 MOL1         0.2972
       2    H1      15.198233   15.061501   22.043049 H          1 MOL1         0.0751
       3    O1      16.586321   16.453319   21.268460 O.3        1 MOL1        -0.3740
       4    C2      17.106154   14.947448   23.111443 C.3        1 MOL1         0.1003
       5    H2      16.923627   13.920420   23.453683 H          1 MOL1         0.0783
       6    O2      16.726534   15.865392   24.149304 O.3        1 MOL1        -0.5519
       7    H3      15.948321   16.376967   23.818014 H          1 MOL1         0.3769
       8    C3      18.613371   15.093924   22.805772 C.3        1 MOL1         0.1053
       9    H4      18.795105   16.145363   22.555581 H          1 MOL1         0.0783
      10    O3      19.369243   14.742758   23.968484 O.3        1 MOL1        -0.5519
      11    H5      18.916922   15.208702   24.707695 H          1 MOL1         0.3769
      12    C4      19.056646   14.227024   21.599282 C.3        1 MOL1         0.1018
      13    H6      19.192423   13.191942   21.940154 H          1 MOL1         0.0783
      14    C5      18.056743   14.273132   20.406708 C.3        1 MOL1         0.1043
      15    H7      18.184861   15.235030   19.892853 H          1 MOL1         0.0783
      16    O4      16.689598   14.156423   20.877320 O.3        1 MOL1        -0.3740
      17    C6      18.293868   13.159626   19.362545 C.3        1 MOL1         0.0138
      18    H8      19.278067   13.307169   18.898694 H          1 MOL1         0.0794
      19    H9      17.541932   13.254829   18.567732 H          1 MOL1         0.0794
      20    O5      18.220567   11.863186   19.962393 O.3        1 MOL1        -0.5486
      21    H10     17.330318   11.799523   20.374809 H          1 MOL1         0.3769
      22    C7      14.898416   20.167795   20.559388 C.3        1 MOL1         0.2972
      23    H11     14.268001   21.014037   20.257351 H          1 MOL1         0.0751
      24    O6      16.232933   20.600585   20.898715 O.3        1 MOL1        -0.3740
      25    C8      14.265414   19.395913   21.750338 C.3        1 MOL1         0.1003
      26    H12     13.294539   19.018135   21.404042 H          1 MOL1         0.0783
      27    O7      14.050085   20.239457   22.891514 O.3        1 MOL1        -0.5519
      28    H13     14.942618   20.535733   23.202810 H          1 MOL1         0.3769
      29    C9      15.133707   18.176427   22.143667 C.3        1 MOL1         0.1053
      30    H14     16.076714   18.554316   22.563198 H          1 MOL1         0.0783
      31    O8      14.437380   17.407047   23.129607 O.3        1 MOL1        -0.5519
      32    H15     14.033953   18.071321   23.733702 H          1 MOL1         0.3769
      33    C10     15.473365   17.294529   20.911440 C.3        1 MOL1         0.1018
      34    H16     14.595522   16.703741   20.617212 H          1 MOL1         0.0783
      35    C11     15.941447   18.134550   19.695108 C.3        1 MOL1         0.1043
      36    H17     16.943094   18.521890   19.910262 H          1 MOL1         0.0783
      37    O9      15.018173   19.228522   19.470480 O.3        1 MOL1        -0.3740
      38    C12     16.017926   17.303481   18.397641 C.3        1 MOL1         0.0138
      39    H18     15.003913   17.015795   18.089179 H          1 MOL1         0.0794
      40    H19     16.582019   16.381556   18.589600 H          1 MOL1         0.0794
      41    O10     16.663531   18.061107   17.371372 O.3        1 MOL1        -0.5486
      42    H20     16.160173   18.901564   17.293601 H          1 MOL1         0.3769
      43    C13     18.495064   23.897194   21.957937 C.3        1 MOL1         0.2972
      44    H21     18.873425   24.870650   22.295568 H          1 MOL1         0.0751
      45    O11     19.525100   23.120905   21.313162 O.3        1 MOL1        -0.3740
      46    C14     17.917915   23.095470   23.155124 C.3        1 MOL1         0.1003
      47    H22     17.095184   23.689982   23.573371 H          1 MOL1         0.0783
      48    O12     18.901662   22.871411   24.177521 O.3        1 MOL1        -0.5519
      49    H23     19.652882   23.488483   24.002696 H          1 MOL1         0.3769
      50    C15     17.341620   21.740826   22.686024 C.3        1 MOL1         0.1053
      51    H24     18.182061   21.118030   22.357041 H          1 MOL1         0.0783
      52    O13     16.676624   21.109880   23.784741 O.3        1 MOL1        -0.5519
      53    H25     17.303902   21.201541   24.537251 H          1 MOL1         0.3769
      54    C16     16.366169   21.906206   21.494220 C.3        1 MOL1         0.1018
      55    H26     15.408333   22.286005   21.873392 H          1 MOL1         0.0783
      56    C17     16.914601   22.863809   20.397932 C.3        1 MOL1         0.1043
      57    H27     17.724529   22.349378   19.863898 H          1 MOL1         0.0783
      58    O14     17.425421   24.077835   21.005417 O.3        1 MOL1        -0.3740
      59    C18     15.855375   23.270870   19.349460 C.3        1 MOL1         0.0138
      60    H28     15.547260   22.379344   18.787454 H          1 MOL1         0.0794
      61    H29     16.315955   23.964092   18.632869 H          1 MOL1         0.0794
      62    O15     14.719123   23.880000   19.969143 O.3        1 MOL1        -0.5486
      63    H30     15.059307   24.655767   20.468195 H          1 MOL1         0.3769
      64    C19     23.609171   22.887459   20.940254 C.3        1 MOL1         0.2972
      65    H31     24.683498   23.006103   20.748622 H          1 MOL1         0.0751
      66    O16     23.257152   21.502614   21.151211 O.3        1 MOL1        -0.3740
      67    C20     23.155892   23.740005   22.154056 C.3        1 MOL1         0.1003
      68    H32     23.322168   24.791502   21.885632 H          1 MOL1         0.0783
      69    O17     23.910487   23.443324   23.338009 O.3        1 MOL1        -0.5519
      70    H33     23.706854   22.505013   23.581305 H          1 MOL1         0.3769
      71    C21     21.642237   23.550773   22.414812 C.3        1 MOL1         0.1053
      72    H34     21.484308   22.517983   22.756430 H          1 MOL1         0.0783
      73    O18     21.233031   24.468073   23.435271 O.3        1 MOL1        -0.5519
      74    H35     21.967161   24.463316   24.091215 H          1 MOL1         0.3769
      75    C22     20.801038   23.765235   21.124356 C.3        1 MOL1         0.1018
      76    H36     20.684178   24.840356   20.932970 H          1 MOL1         0.0783
      77    C23     21.425735   23.102860   19.865356 C.3        1 MOL1         0.1043
      78    H37     21.247566   22.023791   19.911651 H          1 MOL1         0.0783
      79    O19     22.849854   23.363801   19.810033 O.3        1 MOL1        -0.3740
      80    C24     20.794425   23.627267   18.559868 C.3        1 MOL1         0.0138
      81    H38     21.045286   24.689138   18.434736 H          1 MOL1         0.0794
      82    H39     19.701235   23.547518   18.629790 H          1 MOL1         0.0794
      83    O20     21.267784   22.862402   17.449459 O.3        1 MOL1        -0.5486
      84    H40     22.249007   22.906462   17.485929 H          1 MOL1         0.3769
      85    C25     24.767359   17.777670   22.121543 C.3        1 MOL1         0.2972
      86    H41     25.372684   16.921207   22.444525 H          1 MOL1         0.0751
      87    O21     23.580633   17.357311   21.418218 O.3        1 MOL1        -0.3740
      88    C26     24.348216   18.635898   23.343108 C.3        1 MOL1         0.1003
      89    H42     25.270626   18.993052   23.819407 H          1 MOL1         0.0783
      90    O22     23.591553   17.870443   24.295079 O.3        1 MOL1        -0.5519
      91    H43     23.765450   16.916903   24.105531 H          1 MOL1         0.3769
      92    C27     23.528720   19.866539   22.891981 C.3        1 MOL1         0.1053
      93    H44     22.571173   19.502497   22.498891 H          1 MOL1         0.0783
      94    O23     23.293690   20.707541   24.024779 O.3        1 MOL1        -0.5519
      95    H45     22.996474   20.090849   24.731607 H          1 MOL1         0.3769
      96    C28     24.248807   20.659803   21.770252 C.3        1 MOL1         0.1018
      97    H46     25.063402   21.244146   22.218342 H          1 MOL1         0.0783
      98    C29     24.813346   19.736826   20.653499 C.3        1 MOL1         0.1043
      99    H47     23.969794   19.357773   20.061642 H          1 MOL1         0.0783
     100    O24     25.533939   18.623843   21.238601 O.3        1 MOL1        -0.3740
     101    C30     25.771777   20.463383   19.683705 C.3        1 MOL1         0.0138
     102    H48     25.212271   21.235912   19.139701 H          1 MOL1         0.0794
     103    H49     26.137184   19.741616   18.940946 H          1 MOL1         0.0794
     104    O25     26.870060   21.052978   20.385434 O.3        1 MOL1        -0.5486
     105    H50     27.315633   20.320377   20.866435 H          1 MOL1         0.3769
     106    C31     21.363911   13.903487   20.810892 C.3        1 MOL1         0.2972
     107    H51     20.989094   12.909611   20.534009 H          1 MOL1         0.0751
     108    O26     20.287447   14.808101   21.129586 O.3        1 MOL1        -0.3740
     109    C32     22.338138   13.822583   22.015669 C.3        1 MOL1         0.1003
     110    H52     23.185615   13.199602   21.701147 H          1 MOL1         0.0783
     111    O27     21.721115   13.218805   23.162887 O.3        1 MOL1        -0.5519
     112    H53     20.941108   13.779236   23.406161 H          1 MOL1         0.3769
     113    C33     22.888511   15.225455   22.374793 C.3        1 MOL1         0.1053
     114    H54     22.053706   15.827730   22.760291 H          1 MOL1         0.0783
     115    O28     23.888640   15.078841   23.389086 O.3        1 MOL1        -0.5519
     116    H55     23.536551   14.386402   23.994088 H          1 MOL1         0.3769
     117    C34     23.468211   15.950148   21.125100 C.3        1 MOL1         0.1018
     118    H56     24.440677   15.517027   20.855445 H          1 MOL1         0.0783
     119    C35     22.519130   15.853548   19.903297 C.3        1 MOL1         0.1043
     120    H57     21.650688   16.487986   20.104417 H          1 MOL1         0.0783
     121    O29     22.101681   14.479401   19.712614 O.3        1 MOL1        -0.3740
     122    C36     23.174293   16.341404   18.593699 C.3        1 MOL1         0.0138
     123    H58     23.997384   15.665709   18.325307 H          1 MOL1         0.0794
     124    H59     23.601007   17.340420   18.752803 H          1 MOL1         0.0794
     125    O30     22.198500   16.389650   17.548182 O.3        1 MOL1        -0.5486
     126    H60     21.817625   15.484058   17.498040 H          1 MOL1         0.3769
     127    N1      20.766220   18.859091   16.783704 N.4        1 MOL1        -0.5891
     128    H1      21.282605   17.974062   16.922474 H          1 MOL1         0.3726
     129    H2      21.248255   19.375375   16.042026 H          1 MOL1         0.3726
     130    H3      19.834635   18.614942   16.433580 H          1 MOL1         0.3726
     131    C1      20.695422   19.653040   18.070582 C.3        1 MOL1         0.0314
     132    H4      20.205078   20.608887   17.864235 H          1 MOL1         0.0999
     133    H5      21.720872   19.855484   18.391519 H          1 MOL1         0.0999
     134    C2      19.942340   18.902619   19.181310 C.3        1 MOL1        -0.1308
     135    H6      18.879846   18.839856   18.920456 H          1 MOL1         0.1025
     136    H7      20.310660   17.873335   19.231264 H          1 MOL1         0.1025
     137    C3      20.116285   19.587006   20.552975 C.3        1 MOL1        -0.1243
     138    H8      19.575431   20.542193   20.556173 H          1 MOL1         0.1025
     139    H9      21.177025   19.818799   20.713364 H          1 MOL1         0.1025
     140    C4      19.621781   18.705026   21.717282 C.3        1 MOL1        -0.2258
     141    H10     19.754719   19.220662   22.677455 H          1 MOL1         0.1036
     142    H11     20.189925   17.766949   21.762835 H          1 MOL1         0.1036
     143    H12     18.557292   18.462143   21.611089 H          1 MOL1         0.1036
@<TRIPOS>BOND
    1     1     2    1
    2     1     3    1
    3     1     4    1
    4     4     5    1
    5     4     6    1
    6     6     7    1
    7     4     8    1
    8     8     9    1
    9     8    10    1
   10    10    11    1
   11     8    12    1
   12    12    13    1
   13    12    14    1
   14    14    15    1
   15     1    16    1
   16    14    16    1
   17    14    17    1
   18    17    18    1
   19    17    19    1
   20    17    20    1
   21    20    21    1
   22    22    23    1
   23    22    24    1
   24    22    25    1
   25    25    26    1
   26    25    27    1
   27    27    28    1
   28    25    29    1
   29    29    30    1
   30    29    31    1
   31    31    32    1
   32     3    33    1
   33    29    33    1
   34    33    34    1
   35    33    35    1
   36    35    36    1
   37    22    37    1
   38    35    37    1
   39    35    38    1
   40    38    39    1
   41    38    40    1
   42    38    41    1
   43    41    42    1
   44    43    44    1
   45    43    45    1
   46    43    46    1
   47    46    47    1
   48    46    48    1
   49    48    49    1
   50    46    50    1
   51    50    51    1
   52    50    52    1
   53    52    53    1
   54    24    54    1
   55    50    54    1
   56    54    55    1
   57    54    56    1
   58    56    57    1
   59    43    58    1
   60    56    58    1
   61    56    59    1
   62    59    60    1
   63    59    61    1
   64    59    62    1
   65    62    63    1
   66    64    65    1
   67    64    66    1
   68    64    67    1
   69    67    68    1
   70    67    69    1
   71    69    70    1
   72    67    71    1
   73    71    72    1
   74    71    73    1
   75    73    74    1
   76    45    75    1
   77    71    75    1
   78    75    76    1
   79    75    77    1
   80    77    78    1
   81    64    79    1
   82    77    79    1
   83    77    80    1
   84    80    81    1
   85    80    82    1
   86    80    83    1
   87    83    84    1
   88    85    86    1
   89    85    87    1
   90    85    88    1
   91    88    89    1
   92    88    90    1
   93    90    91    1
   94    88    92    1
   95    92    93    1
   96    92    94    1
   97    94    95    1
   98    66    96    1
   99    92    96    1
  100    96    97    1
  101    96    98    1
  102    98    99    1
  103    85   100    1
  104    98   100    1
  105    98   101    1
  106   101   102    1
  107   101   103    1
  108   101   104    1
  109   104   105    1
  110   106   107    1
  111    12   108    1
  112   106   108    1
  113   106   109    1
  114   109   110    1
  115   109   111    1
  116   111   112    1
  117   109   113    1
  118   113   114    1
  119   113   115    1
  120   115   116    1
  121    87   117    1
  122   113   117    1
  123   117   118    1
  124   117   119    1
  125   119   120    1
  126   106   121    1
  127   119   121    1
  128   119   122    1
  129   122   123    1
  130   122   124    1
  131   122   125    1
  132   125   126    1
  133   127   128    1
  134   127   129    1
  135   127   130    1
  136   127   131    1
  137   131   132    1
  138   131   133    1
  139   131   134    1
  140   134   135    1
  141   134   136    1
  142   134   137    1
  143   137   138    1
  144   137   139    1
  145   137   140    1
  146   140   141    1
  147   140   142    1
  148   140   143    1
@<TRIPOS>SUBSTRUCTURE
       1 MOL1            1 RESIDUE      1      MOL     
       2 MOL1          143 RESIDUE      1      MOL     
@<SCITEGIC>MOL_PROPERTY
VM2 Rank
SciTegic.value.IntegerValue
2

@<SCITEGIC>MOL_PROPERTY
Conf_Id
SciTegic.value.IntegerValue
5350

@<SCITEGIC>MOL_PROPERTY
Probability
SciTegic.value.DoubleValue
1.98

@<SCITEGIC>MOL_PROPERTY
Sum Probability
SciTegic.value.DoubleValue
3.99

@<SCITEGIC>MOL_PROPERTY
Delta G
SciTegic.value.DoubleValue
0.009

@<SCITEGIC>MOL_PROPERTY
G
SciTegic.value.DoubleValue
538.541

@<SCITEGIC>MOL_PROPERTY
E
SciTegic.value.DoubleValue
350.729

@<SCITEGIC>MOL_PROPERTY
-TS
SciTegic.value.DoubleValue
187.813

@<SCITEGIC>MOL_PROPERTY
U+W
SciTegic.value.DoubleValue
224.640

@<SCITEGIC>MOL_PROPERTY
U
SciTegic.value.DoubleValue
295.906

@<SCITEGIC>MOL_PROPERTY
W
SciTegic.value.DoubleValue
-71.266

@<SCITEGIC>MOL_PROPERTY
W(PB)
SciTegic.value.DoubleValue
-77.302

@<SCITEGIC>MOL_PROPERTY
W(SA)
SciTegic.value.DoubleValue
6.036

@<SCITEGIC>MOL_PROPERTY
Valence
SciTegic.value.DoubleValue
144.295

@<SCITEGIC>MOL_PROPERTY
Coulomb
SciTegic.value.DoubleValue
170.940

@<SCITEGIC>MOL_PROPERTY
VdW
SciTegic.value.DoubleValue
-19.329

@<SCITEGIC>MOL_PROPERTY
VdW6
SciTegic.value.DoubleValue
-165.808

@<SCITEGIC>MOL_PROPERTY
VdW12
SciTegic.value.DoubleValue
146.479

@<SCITEGIC>MOL_PROPERTY
Bond
SciTegic.value.DoubleValue
4.429

@<SCITEGIC>MOL_PROPERTY
Angle
SciTegic.value.DoubleValue
10.253

@<SCITEGIC>MOL_PROPERTY
Pdih
SciTegic.value.DoubleValue
129.612

@<SCITEGIC>MOL_PROPERTY
Idih
SciTegic.value.DoubleValue
0.000

@<SCITEGIC>MOL_PROPERTY
Tether
SciTegic.value.DoubleValue
0.000

@<TRIPOS>MOLECULE
CD_guest-1_vm2_single.mol2 : vm2 host+ligand conformer 3
         143         148           2
SMALL
USER_CHARGES
 
@<TRIPOS>ATOM
       1    C1      16.466337   15.352840   21.862928 C.3        1 MOL1         0.2972
       2    H1      15.411775   15.261407   22.152372 H          1 MOL1         0.0751
       3    O1      16.732504   16.614504   21.214595 O.3        1 MOL1        -0.3740
       4    C2      17.376954   15.222849   23.110735 C.3        1 MOL1         0.1003
       5    H2      17.184631   14.234956   23.549283 H          1 MOL1         0.0783
       6    O2      17.085016   16.237344   24.085621 O.3        1 MOL1        -0.5519
       7    H3      16.187459   16.592421   23.875732 H          1 MOL1         0.3769
       8    C3      18.868993   15.293391   22.714406 C.3        1 MOL1         0.1053
       9    H4      19.073283   16.315963   22.376303 H          1 MOL1         0.0783
      10    O3      19.667970   15.002838   23.864412 O.3        1 MOL1        -0.5519
      11    H5      19.277218   15.551556   24.581622 H          1 MOL1         0.3769
      12    C4      19.211711   14.318022   21.557644 C.3        1 MOL1         0.1018
      13    H6      19.284471   13.300254   21.963451 H          1 MOL1         0.0783
      14    C5      18.164144   14.355566   20.409126 C.3        1 MOL1         0.1043
      15    H7      18.292855   15.294970   19.855676 H          1 MOL1         0.0783
      16    O4      16.821907   14.293367   20.950198 O.3        1 MOL1        -0.3740
      17    C6      18.321054   13.196801   19.399348 C.3        1 MOL1         0.0138
      18    H8      19.289052   13.294676   18.890231 H          1 MOL1         0.0794
      19    H9      17.539145   13.287028   18.633422 H          1 MOL1         0.0794
      20    O5      18.233594   11.926361   20.050945 O.3        1 MOL1        -0.5486
      21    H10     17.361328   11.908110   20.504223 H          1 MOL1         0.3769
      22    C7      14.831455   20.258416   20.617672 C.3        1 MOL1         0.2972
      23    H11     14.158399   21.078750   20.336553 H          1 MOL1         0.0751
      24    O6      16.135718   20.746369   20.992437 O.3        1 MOL1        -0.3740
      25    C8      14.239568   19.417359   21.778775 C.3        1 MOL1         0.1003
      26    H12     13.304867   18.975599   21.409328 H          1 MOL1         0.0783
      27    O7      13.942913   20.220473   22.930693 O.3        1 MOL1        -0.5519
      28    H13     14.795129   20.623388   23.235066 H          1 MOL1         0.3769
      29    C9      15.194967   18.257502   22.152569 C.3        1 MOL1         0.1053
      30    H14     16.114771   18.692163   22.568730 H          1 MOL1         0.0783
      31    O8      14.556434   17.438213   23.138334 O.3        1 MOL1        -0.5519
      32    H15     14.098509   18.072223   23.736479 H          1 MOL1         0.3769
      33    C10     15.578134   17.419333   20.898649 C.3        1 MOL1         0.1018
      34    H16     14.727013   16.793405   20.598581 H          1 MOL1         0.0783
      35    C11     15.986380   18.308320   19.693562 C.3        1 MOL1         0.1043
      36    H17     16.974040   18.739499   19.894623 H          1 MOL1         0.0783
      37    O9      15.006837   19.359764   19.502964 O.3        1 MOL1        -0.3740
      38    C12     16.070306   17.505793   18.378748 C.3        1 MOL1         0.0138
      39    H18     15.077076   17.107096   18.132502 H          1 MOL1         0.0794
      40    H19     16.747893   16.652959   18.516881 H          1 MOL1         0.0794
      41    O10     16.549572   18.345126   17.325753 O.3        1 MOL1        -0.5486
      42    H20     15.954869   19.127533   17.312649 H          1 MOL1         0.3769
      43    C13     18.367320   24.039776   21.953750 C.3        1 MOL1         0.2972
      44    H21     18.798116   25.010292   22.232098 H          1 MOL1         0.0751
      45    O11     19.364447   23.140042   21.425419 O.3        1 MOL1        -0.3740
      46    C14     17.685123   23.378812   23.177966 C.3        1 MOL1         0.1003
      47    H22     16.855072   24.030391   23.480871 H          1 MOL1         0.0783
      48    O12     18.592705   23.230481   24.281254 O.3        1 MOL1        -0.5519
      49    H23     19.464879   23.598271   23.995996 H          1 MOL1         0.3769
      50    C15     17.099699   22.003780   22.789779 C.3        1 MOL1         0.1053
      51    H24     17.943908   21.339814   22.574698 H          1 MOL1         0.0783
      52    O13     16.355509   21.482260   23.893911 O.3        1 MOL1        -0.5519
      53    H25     16.934284   21.633910   24.675250 H          1 MOL1         0.3769
      54    C16     16.204669   22.083747   21.524675 C.3        1 MOL1         0.1018
      55    H26     15.216254   22.461786   21.818236 H          1 MOL1         0.0783
      56    C17     16.804079   22.977277   20.398770 C.3        1 MOL1         0.1043
      57    H27     17.607286   22.412354   19.907641 H          1 MOL1         0.0783
      58    O14     17.346784   24.205798   20.947357 O.3        1 MOL1        -0.3740
      59    C18     15.778508   23.358203   19.308235 C.3        1 MOL1         0.0138
      60    H28     15.445549   22.446063   18.795563 H          1 MOL1         0.0794
      61    H29     16.276386   23.989425   18.559995 H          1 MOL1         0.0794
      62    O15     14.656923   24.045377   19.870195 O.3        1 MOL1        -0.5486
      63    H30     15.019304   24.834425   20.331448 H          1 MOL1         0.3769
      64    C19     23.452774   22.735256   20.934434 C.3        1 MOL1         0.2972
      65    H31     24.519220   22.861767   20.707600 H          1 MOL1         0.0751
      66    O16     23.121892   21.345876   21.145737 O.3        1 MOL1        -0.3740
      67    C20     23.040564   23.584373   22.168546 C.3        1 MOL1         0.1003
      68    H32     23.235118   24.633582   21.910542 H          1 MOL1         0.0783
      69    O17     23.801560   23.250568   23.338803 O.3        1 MOL1        -0.5519
      70    H33     23.572325   22.315576   23.572208 H          1 MOL1         0.3769
      71    C21     21.527134   23.442674   22.458044 C.3        1 MOL1         0.1053
      72    H34     21.342259   22.413431   22.796340 H          1 MOL1         0.0783
      73    O18     21.164404   24.367001   23.488541 O.3        1 MOL1        -0.5519
      74    H35     21.901125   24.325348   24.140054 H          1 MOL1         0.3769
      75    C22     20.672144   23.693539   21.186665 C.3        1 MOL1         0.1018
      76    H36     20.625792   24.769755   20.972630 H          1 MOL1         0.0783
      77    C23     21.231234   22.961190   19.939531 C.3        1 MOL1         0.1043
      78    H37     21.029705   21.889619   20.048779 H          1 MOL1         0.0783
      79    O19     22.655985   23.201784   19.826748 O.3        1 MOL1        -0.3740
      80    C24     20.571985   23.440812   18.630641 C.3        1 MOL1         0.0138
      81    H38     20.789303   24.507237   18.483359 H          1 MOL1         0.0794
      82    H39     19.482632   23.329984   18.711215 H          1 MOL1         0.0794
      83    O20     21.065493   22.671076   17.531522 O.3        1 MOL1        -0.5486
      84    H40     22.043413   22.781310   17.548066 H          1 MOL1         0.3769
      85    C25     24.804795   17.670494   22.102628 C.3        1 MOL1         0.2972
      86    H41     25.455127   16.854108   22.442066 H          1 MOL1         0.0751
      87    O21     23.682420   17.174643   21.345818 O.3        1 MOL1        -0.3740
      88    C26     24.289870   18.494781   23.314151 C.3        1 MOL1         0.1003
      89    H42     25.173738   18.898247   23.825301 H          1 MOL1         0.0783
      90    O22     23.542178   17.689083   24.238612 O.3        1 MOL1        -0.5519
      91    H43     23.786876   16.747199   24.071520 H          1 MOL1         0.3769
      92    C27     23.421261   19.684597   22.847264 C.3        1 MOL1         0.1053
      93    H44     22.498438   19.278150   22.415690 H          1 MOL1         0.0783
      94    O23     23.106176   20.502932   23.978023 O.3        1 MOL1        -0.5519
      95    H45     22.822367   19.864596   24.671005 H          1 MOL1         0.3769
      96    C28     24.135051   20.524769   21.760371 C.3        1 MOL1         0.1018
      97    H46     24.917685   21.127176   22.239934 H          1 MOL1         0.0783
      98    C29     24.765617   19.640995   20.647448 C.3        1 MOL1         0.1043
      99    H47     23.954718   19.216159   20.041011 H          1 MOL1         0.0783
     100    O24     25.540360   18.571275   21.246755 O.3        1 MOL1        -0.3740
     101    C30     25.698333   20.421594   19.694648 C.3        1 MOL1         0.0138
     102    H48     25.104494   21.157016   19.135901 H          1 MOL1         0.0794
     103    H49     26.121616   19.721105   18.962310 H          1 MOL1         0.0794
     104    O25     26.744701   21.078524   20.415642 O.3        1 MOL1        -0.5486
     105    H50     27.225703   20.375351   20.906284 H          1 MOL1         0.3769
     106    C31     21.480935   13.765944   20.774904 C.3        1 MOL1         0.2972
     107    H51     21.045364   12.787838   20.532881 H          1 MOL1         0.0751
     108    O26     20.459619   14.764592   20.991951 O.3        1 MOL1        -0.3740
     109    C32     22.407683   13.679852   22.014745 C.3        1 MOL1         0.1003
     110    H52     23.244428   13.022839   21.743469 H          1 MOL1         0.0783
     111    O27     21.738444   13.123786   23.155768 O.3        1 MOL1        -0.5519
     112    H53     21.021413   13.759182   23.407064 H          1 MOL1         0.3769
     113    C33     22.988656   15.073860   22.351981 C.3        1 MOL1         0.1053
     114    H54     22.160878   15.709779   22.696206 H          1 MOL1         0.0783
     115    O28     23.955273   14.926364   23.398223 O.3        1 MOL1        -0.5519
     116    H55     23.568542   14.258750   24.009859 H          1 MOL1         0.3769
     117    C34     23.632501   15.752595   21.108184 C.3        1 MOL1         0.1018
     118    H56     24.636031   15.339241   20.940277 H          1 MOL1         0.0783
     119    C35     22.800468   15.578865   19.806780 C.3        1 MOL1         0.1043
     120    H57     21.952901   16.270950   19.836581 H          1 MOL1         0.0783
     121    O29     22.314505   14.219229   19.688345 O.3        1 MOL1        -0.3740
     122    C36     23.624741   15.904527   18.545019 C.3        1 MOL1         0.0138
     123    H58     24.406769   15.144582   18.414103 H          1 MOL1         0.0794
     124    H59     24.120291   16.875731   18.678189 H          1 MOL1         0.0794
     125    O30     22.767008   15.950447   17.403105 O.3        1 MOL1        -0.5486
     126    H60     22.285191   15.093676   17.387015 H          1 MOL1         0.3769
     127    N1      19.732758   20.098176   17.208814 N.4        1 MOL1        -0.5891
     128    H1      20.266999   20.976437   17.315876 H          1 MOL1         0.3726
     129    H2      18.884148   20.332499   16.684682 H          1 MOL1         0.3726
     130    H3      20.285461   19.472167   16.616918 H          1 MOL1         0.3726
     131    C1      19.398795   19.470225   18.544741 C.3        1 MOL1         0.0314
     132    H4      18.715649   18.637527   18.357089 H          1 MOL1         0.0999
     133    H5      18.870890   20.217543   19.142939 H          1 MOL1         0.0999
     134    C2      20.627050   18.950082   19.314871 C.3        1 MOL1        -0.1308
     135    H6      21.144950   18.202182   18.699632 H          1 MOL1         0.1025
     136    H7      21.343557   19.763422   19.483835 H          1 MOL1         0.1025
     137    C3      20.230043   18.311630   20.665280 C.3        1 MOL1        -0.1243
     138    H8      21.119254   17.884508   21.145441 H          1 MOL1         0.1025
     139    H9      19.543799   17.473794   20.481477 H          1 MOL1         0.1025
     140    C4      19.576025   19.313960   21.639956 C.3        1 MOL1        -0.2258
     141    H10     18.624410   19.685408   21.245324 H          1 MOL1         0.1036
     142    H11     20.231588   20.175048   21.826209 H          1 MOL1         0.1036
     143    H12     19.367889   18.835061   22.605841 H          1 MOL1         0.1036
@<TRIPOS>BOND
    1     1     2    1
    2     1     3    1
    3     1     4    1
    4     4     5    1
    5     4     6    1
    6     6     7    1
    7     4     8    1
    8     8     9    1
    9     8    10    1
   10    10    11    1
   11     8    12    1
   12    12    13    1
   13    12    14    1
   14    14    15    1
   15     1    16    1
   16    14    16    1
   17    14    17    1
   18    17    18    1
   19    17    19    1
   20    17    20    1
   21    20    21    1
   22    22    23    1
   23    22    24    1
   24    22    25    1
   25    25    26    1
   26    25    27    1
   27    27    28    1
   28    25    29    1
   29    29    30    1
   30    29    31    1
   31    31    32    1
   32     3    33    1
   33    29    33    1
   34    33    34    1
   35    33    35    1
   36    35    36    1
   37    22    37    1
   38    35    37    1
   39    35    38    1
   40    38    39    1
   41    38    40    1
   42    38    41    1
   43    41    42    1
   44    43    44    1
   45    43    45    1
   46    43    46    1
   47    46    47    1
   48    46    48    1
   49    48    49    1
   50    46    50    1
   51    50    51    1
   52    50    52    1
   53    52    53    1
   54    24    54    1
   55    50    54    1
   56    54    55    1
   57    54    56    1
   58    56    57    1
   59    43    58    1
   60    56    58    1
   61    56    59    1
   62    59    60    1
   63    59    61    1
   64    59    62    1
   65    62    63    1
   66    64    65    1
   67    64    66    1
   68    64    67    1
   69    67    68    1
   70    67    69    1
   71    69    70    1
   72    67    71    1
   73    71    72    1
   74    71    73    1
   75    73    74    1
   76    45    75    1
   77    71    75    1
   78    75    76    1
   79    75    77    1
   80    77    78    1
   81    64    79    1
   82    77    79    1
   83    77    80    1
   84    80    81    1
   85    80    82    1
   86    80    83    1
   87    83    84    1
   88    85    86    1
   89    85    87    1
   90    85    88    1
   91    88    89    1
   92    88    90    1
   93    90    91    1
   94    88    92    1
   95    92    93    1
   96    92    94    1
   97    94    95    1
   98    66    96    1
   99    92    96    1
  100    96    97    1
  101    96    98    1
  102    98    99    1
  103    85   100    1
  104    98   100    1
  105    98   101    1
  106   101   102    1
  107   101   103    1
  108   101   104    1
  109   104   105    1
  110   106   107    1
  111    12   108    1
  112   106   108    1
  113   106   109    1
  114   109   110    1
  115   109   111    1
  116   111   112    1
  117   109   113    1
  118   113   114    1
  119   113   115    1
  120   115   116    1
  121    87   117    1
  122   113   117    1
  123   117   118    1
  124   117   119    1
  125   119   120    1
  126   106   121    1
  127   119   121    1
  128   119   122    1
  129   122   123    1
  130   122   124    1
  131   122   125    1
  132   125   126    1
  133   127   128    1
  134   127   129    1
  135   127   130    1
  136   127   131    1
  137   131   132    1
  138   131   133    1
  139   131   134    1
  140   134   135    1
  141   134   136    1
  142   134   137    1
  143   137   138    1
  144   137   139    1
  145   137   140    1
  146   140   141    1
  147   140   142    1
  148   140   143    1
@<TRIPOS>SUBSTRUCTURE
       1 MOL1            1 RESIDUE      1      MOL     
       2 MOL1          143 RESIDUE      1      MOL     
@<SCITEGIC>MOL_PROPERTY
VM2 Rank
SciTegic.value.IntegerValue
3

@<SCITEGIC>MOL_PROPERTY
Conf_Id
SciTegic.value.IntegerValue
24933

@<SCITEGIC>MOL_PROPERTY
Probability
SciTegic.value.DoubleValue
1.94

@<SCITEGIC>MOL_PROPERTY
Sum Probability
SciTegic.value.DoubleValue
5.93

@<SCITEGIC>MOL_PROPERTY
Delta G
SciTegic.value.DoubleValue
0.021

@<SCITEGIC>MOL_PROPERTY
G
SciTegic.value.DoubleValue
538.553

@<SCITEGIC>MOL_PROPERTY
E
SciTegic.value.DoubleValue
350.433

@<SCITEGIC>MOL_PROPERTY
-TS
SciTegic.value.DoubleValue
188.119

@<SCITEGIC>MOL_PROPERTY
U+W
SciTegic.value.DoubleValue
224.345

@<SCITEGIC>MOL_PROPERTY
U
SciTegic.value.DoubleValue
296.071

@<SCITEGIC>MOL_PROPERTY
W
SciTegic.value.DoubleValue
-71.726

@<SCITEGIC>MOL_PROPERTY
W(PB)
SciTegic.value.DoubleValue
-77.757

@<SCITEGIC>MOL_PROPERTY
W(SA)
SciTegic.value.DoubleValue
6.030

@<SCITEGIC>MOL_PROPERTY
Valence
SciTegic.value.DoubleValue
144.379

@<SCITEGIC>MOL_PROPERTY
Coulomb
SciTegic.value.DoubleValue
171.504

@<SCITEGIC>MOL_PROPERTY
VdW
SciTegic.value.DoubleValue
-19.811

@<SCITEGIC>MOL_PROPERTY
VdW6
SciTegic.value.DoubleValue
-168.297

@<SCITEGIC>MOL_PROPERTY
VdW12
SciTegic.value.DoubleValue
148.486

@<SCITEGIC>MOL_PROPERTY
Bond
SciTegic.value.DoubleValue
4.469

@<SCITEGIC>MOL_PROPERTY
Angle
SciTegic.value.DoubleValue
10.302

@<SCITEGIC>MOL_PROPERTY
Pdih
SciTegic.value.DoubleValue
129.608

@<SCITEGIC>MOL_PROPERTY
Idih
SciTegic.value.DoubleValue
0.000

@<SCITEGIC>MOL_PROPERTY
Tether
SciTegic.value.DoubleValue
0.000

@<TRIPOS>MOLECULE
CD_guest-1_vm2_single.mol2 : vm2 host+ligand conformer 4
         143         148           2
SMALL
USER_CHARGES
 
@<TRIPOS>ATOM
       1    C1      16.353418   15.324162   21.615471 C.3        1 MOL1         0.2972
       2    H1      15.291873   15.169989   21.847158 H          1 MOL1         0.0751
       3    O1      16.576587   16.606032   20.986659 O.3        1 MOL1        -0.3740
       4    C2      17.212023   15.210931   22.905564 C.3        1 MOL1         0.1003
       5    H2      17.054083   14.201471   23.307306 H          1 MOL1         0.0783
       6    O2      16.834400   16.173505   23.901771 O.3        1 MOL1        -0.5519
       7    H3      15.904480   16.442667   23.708749 H          1 MOL1         0.3769
       8    C3      18.713615   15.368786   22.583802 C.3        1 MOL1         0.1053
       9    H4      18.873245   16.398958   22.246285 H          1 MOL1         0.0783
      10    O3      19.470352   15.126689   23.773208 O.3        1 MOL1        -0.5519
      11    H5      18.998211   15.636646   24.470262 H          1 MOL1         0.3769
      12    C4      19.162429   14.413789   21.450878 C.3        1 MOL1         0.1018
      13    H6      19.238848   13.396094   21.856124 H          1 MOL1         0.0783
      14    C5      18.180247   14.429388   20.244871 C.3        1 MOL1         0.1043
      15    H7      18.294817   15.384105   19.717210 H          1 MOL1         0.0783
      16    O4      16.812526   14.298289   20.708144 O.3        1 MOL1        -0.3740
      17    C6      18.445761   13.299723   19.225143 C.3        1 MOL1         0.0138
      18    H8      19.434705   13.451773   18.772691 H          1 MOL1         0.0794
      19    H9      17.703625   13.369534   18.418584 H          1 MOL1         0.0794
      20    O5      18.382287   12.013884   19.848565 O.3        1 MOL1        -0.5486
      21    H10     17.487274   11.944933   20.249521 H          1 MOL1         0.3769
      22    C7      14.720879   20.302749   20.721599 C.3        1 MOL1         0.2972
      23    H11     14.072660   21.167059   20.527574 H          1 MOL1         0.0751
      24    O6      16.052167   20.704949   21.093651 O.3        1 MOL1        -0.3740
      25    C8      14.136988   19.399789   21.836286 C.3        1 MOL1         0.1003
      26    H12     13.160230   19.045064   21.482133 H          1 MOL1         0.0783
      27    O7      13.953592   20.123339   23.063362 O.3        1 MOL1        -0.5519
      28    H13     14.842343   20.465130   23.337585 H          1 MOL1         0.3769
      29    C9      15.034759   18.160750   22.077882 C.3        1 MOL1         0.1053
      30    H14     15.965915   18.508151   22.547668 H          1 MOL1         0.0783
      31    O8      14.337954   17.278059   22.964869 O.3        1 MOL1        -0.5519
      32    H15     13.908640   17.869294   23.625107 H          1 MOL1         0.3769
      33    C10     15.410045   17.429170   20.753746 C.3        1 MOL1         0.1018
      34    H16     14.559544   16.824365   20.412066 H          1 MOL1         0.0783
      35    C11     15.803109   18.415663   19.620018 C.3        1 MOL1         0.1043
      36    H17     16.797309   18.822804   19.842761 H          1 MOL1         0.0783
      37    O9      14.831449   19.486603   19.539500 O.3        1 MOL1        -0.3740
      38    C12     15.865696   17.743983   18.232840 C.3        1 MOL1         0.0138
      39    H18     14.858570   17.418854   17.939322 H          1 MOL1         0.0794
      40    H19     16.501216   16.850229   18.288767 H          1 MOL1         0.0794
      41    O10     16.397531   18.667925   17.277961 O.3        1 MOL1        -0.5486
      42    H20     15.790252   19.441684   17.293279 H          1 MOL1         0.3769
      43    C13     18.455555   23.873546   22.021784 C.3        1 MOL1         0.2972
      44    H21     18.930950   24.818951   22.312163 H          1 MOL1         0.0751
      45    O11     19.384195   22.980236   21.374128 O.3        1 MOL1        -0.3740
      46    C14     17.868914   23.155554   23.263083 C.3        1 MOL1         0.1003
      47    H22     17.097483   23.812077   23.686242 H          1 MOL1         0.0783
      48    O12     18.879998   22.911158   24.254592 O.3        1 MOL1        -0.5519
      49    H23     19.664299   23.459942   24.010716 H          1 MOL1         0.3769
      50    C15     17.201026   21.823932   22.848760 C.3        1 MOL1         0.1053
      51    H24     17.995418   21.140942   22.517561 H          1 MOL1         0.0783
      52    O13     16.522407   21.259287   23.975429 O.3        1 MOL1        -0.5519
      53    H25     17.172277   21.317953   24.711525 H          1 MOL1         0.3769
      54    C16     16.205523   22.010045   21.675620 C.3        1 MOL1         0.1018
      55    H26     15.259014   22.399320   22.073858 H          1 MOL1         0.0783
      56    C17     16.740393   22.940799   20.548752 C.3        1 MOL1         0.1043
      57    H27     17.483554   22.378383   19.968873 H          1 MOL1         0.0783
      58    O14     17.362484   24.121008   21.113909 O.3        1 MOL1        -0.3740
      59    C18     15.647453   23.410227   19.562799 C.3        1 MOL1         0.0138
      60    H28     15.257925   22.540078   19.018284 H          1 MOL1         0.0794
      61    H29     16.104730   24.079025   18.821307 H          1 MOL1         0.0794
      62    O15     14.585086   24.080521   20.246986 O.3        1 MOL1        -0.5486
      63    H30     14.996200   24.835830   20.723585 H          1 MOL1         0.3769
      64    C19     23.474500   22.640753   20.729672 C.3        1 MOL1         0.2972
      65    H31     24.519470   22.787477   20.427856 H          1 MOL1         0.0751
      66    O16     23.226271   21.275375   21.122299 O.3        1 MOL1        -0.3740
      67    C20     23.083826   23.604058   21.885306 C.3        1 MOL1         0.1003
      68    H32     23.212085   24.625949   21.505179 H          1 MOL1         0.0783
      69    O17     23.919662   23.434201   23.040123 O.3        1 MOL1        -0.5519
      70    H33     23.758067   22.518187   23.380963 H          1 MOL1         0.3769
      71    C21     21.595615   23.426923   22.273150 C.3        1 MOL1         0.1053
      72    H34     21.476401   22.425065   22.709481 H          1 MOL1         0.0783
      73    O18     21.247970   24.421147   23.243420 O.3        1 MOL1        -0.5519
      74    H35     22.029890   24.479929   23.838681 H          1 MOL1         0.3769
      75    C22     20.672304   23.520389   21.025879 C.3        1 MOL1         0.1018
      76    H36     20.594786   24.561485   20.685170 H          1 MOL1         0.0783
      77    C23     21.192525   22.641725   19.859924 C.3        1 MOL1         0.1043
      78    H37     21.065664   21.594082   20.150470 H          1 MOL1         0.0783
      79    O19     22.593070   22.927952   19.622105 O.3        1 MOL1        -0.3740
      80    C24     20.418341   22.866072   18.542634 C.3        1 MOL1         0.0138
      81    H38     20.707464   23.832996   18.109529 H          1 MOL1         0.0794
      82    H39     19.342868   22.907728   18.756078 H          1 MOL1         0.0794
      83    O20     20.684083   21.797586   17.628119 O.3        1 MOL1        -0.5486
      84    H40     21.655492   21.804675   17.477256 H          1 MOL1         0.3769
      85    C25     24.943490   17.733210   22.275554 C.3        1 MOL1         0.2972
      86    H41     25.561147   16.896666   22.627330 H          1 MOL1         0.0751
      87    O21     23.737938   17.278712   21.632455 O.3        1 MOL1        -0.3740
      88    C26     24.548095   18.651048   23.458240 C.3        1 MOL1         0.1003
      89    H42     25.474520   19.070327   23.871943 H          1 MOL1         0.0783
      90    O22     23.862283   17.915979   24.485007 O.3        1 MOL1        -0.5519
      91    H43     23.796220   16.978144   24.179382 H          1 MOL1         0.3769
      92    C27     23.667521   19.821754   22.963058 C.3        1 MOL1         0.1053
      93    H44     22.705352   19.403336   22.638352 H          1 MOL1         0.0783
      94    O23     23.453201   20.737437   24.041748 O.3        1 MOL1        -0.5519
      95    H45     23.204421   20.168481   24.804787 H          1 MOL1         0.3769
      96    C28     24.303746   20.560703   21.756872 C.3        1 MOL1         0.1018
      97    H46     25.086109   21.235471   22.128215 H          1 MOL1         0.0783
      98    C29     24.899819   19.596696   20.690087 C.3        1 MOL1         0.1043
      99    H47     24.066644   19.154170   20.128380 H          1 MOL1         0.0783
     100    O24     25.668592   18.544348   21.327654 O.3        1 MOL1        -0.3740
     101    C30     25.819880   20.299729   19.667479 C.3        1 MOL1         0.0138
     102    H48     25.224515   21.010228   19.079124 H          1 MOL1         0.0794
     103    H49     26.211357   19.547589   18.969441 H          1 MOL1         0.0794
     104    O25     26.896386   20.979170   20.319597 O.3        1 MOL1        -0.5486
     105    H50     27.376973   20.298669   20.841694 H          1 MOL1         0.3769
     106    C31     21.490712   13.932845   20.812246 C.3        1 MOL1         0.2972
     107    H51     21.092640   12.954736   20.512585 H          1 MOL1         0.0751
     108    O26     20.433590   14.903234   20.977128 O.3        1 MOL1        -0.3740
     109    C32     22.331297   13.821800   22.114390 C.3        1 MOL1         0.1003
     110    H52     23.181025   13.163541   21.891068 H          1 MOL1         0.0783
     111    O27     21.582331   13.252233   23.197589 O.3        1 MOL1        -0.5519
     112    H53     20.850483   13.886562   23.404833 H          1 MOL1         0.3769
     113    C33     22.897181   15.205390   22.515183 C.3        1 MOL1         0.1053
     114    H54     22.049792   15.849645   22.788917 H          1 MOL1         0.0783
     115    O28     23.772602   15.057809   23.637707 O.3        1 MOL1        -0.5519
     116    H55     23.324571   14.410745   24.228572 H          1 MOL1         0.3769
     117    C34     23.649403   15.875236   21.334457 C.3        1 MOL1         0.1018
     118    H56     24.639353   15.417591   21.204925 H          1 MOL1         0.0783
     119    C35     22.869797   15.783985   19.998882 C.3        1 MOL1         0.1043
     120    H57     22.037837   16.492085   20.053762 H          1 MOL1         0.0783
     121    O29     22.379079   14.435531   19.792850 O.3        1 MOL1        -0.3740
     122    C36     23.735759   16.163216   18.780752 C.3        1 MOL1         0.0138
     123    H58     24.513882   15.401913   18.635633 H          1 MOL1         0.0794
     124    H59     24.237215   17.120148   18.974663 H          1 MOL1         0.0794
     125    O30     22.912281   16.273288   17.617802 O.3        1 MOL1        -0.5486
     126    H60     22.443913   15.413744   17.532926 H          1 MOL1         0.3769
     127    N1      19.268481   19.288484   16.827100 N.4        1 MOL1        -0.5891
     128    H1      19.430623   19.358415   15.818849 H          1 MOL1         0.3726
     129    H2      19.591519   20.178767   17.239458 H          1 MOL1         0.3726
     130    H3      18.247329   19.219793   16.964425 H          1 MOL1         0.3726
     131    C1      19.979561   18.092782   17.429283 C.3        1 MOL1         0.0314
     132    H4      21.055916   18.222831   17.283537 H          1 MOL1         0.0999
     133    H5      19.665874   17.206097   16.872074 H          1 MOL1         0.0999
     134    C2      19.676460   17.885118   18.924802 C.3        1 MOL1        -0.1308
     135    H6      18.601664   17.736441   19.064412 H          1 MOL1         0.1025
     136    H7      20.151972   16.954736   19.248414 H          1 MOL1         0.1025
     137    C3      20.162260   19.064415   19.796608 C.3        1 MOL1        -0.1243
     138    H8      19.613053   19.973184   19.516880 H          1 MOL1         0.1025
     139    H9      21.226990   19.256430   19.600192 H          1 MOL1         0.1025
     140    C4      19.959581   18.809696   21.304113 C.3        1 MOL1        -0.2258
     141    H10     18.900200   18.637106   21.536163 H          1 MOL1         0.1036
     142    H11     20.292602   19.677016   21.889547 H          1 MOL1         0.1036
     143    H12     20.537561   17.937907   21.638203 H          1 MOL1         0.1036
@<TRIPOS>BOND
    1     1     2    1
    2     1     3    1
    3     1     4    1
    4     4     5    1
    5     4     6    1
    6     6     7    1
    7     4     8    1
    8     8     9    1
    9     8    10    1
   10    10    11    1
   11     8    12    1
   12    12    13    1
   13    12    14    1
   14    14    15    1
   15     1    16    1
   16    14    16    1
   17    14    17    1
   18    17    18    1
   19    17    19    1
   20    17    20    1
   21    20    21    1
   22    22    23    1
   23    22    24    1
   24    22    25    1
   25    25    26    1
   26    25    27    1
   27    27    28    1
   28    25    29    1
   29    29    30    1
   30    29    31    1
   31    31    32    1
   32     3    33    1
   33    29    33    1
   34    33    34    1
   35    33    35    1
   36    35    36    1
   37    22    37    1
   38    35    37    1
   39    35    38    1
   40    38    39    1
   41    38    40    1
   42    38    41    1
   43    41    42    1
   44    43    44    1
   45    43    45    1
   46    43    46    1
   47    46    47    1
   48    46    48    1
   49    48    49    1
   50    46    50    1
   51    50    51    1
   52    50    52    1
   53    52    53    1
   54    24    54    1
   55    50    54    1
   56    54    55    1
   57    54    56    1
   58    56    57    1
   59    43    58    1
   60    56    58    1
   61    56    59    1
   62    59    60    1
   63    59    61    1
   64    59    62    1
   65    62    63    1
   66    64    65    1
   67    64    66    1
   68    64    67    1
   69    67    68    1
   70    67    69    1
   71    69    70    1
   72    67    71    1
   73    71    72    1
   74    71    73    1
   75    73    74    1
   76    45    75    1
   77    71    75    1
   78    75    76    1
   79    75    77    1
   80    77    78    1
   81    64    79    1
   82    77    79    1
   83    77    80    1
   84    80    81    1
   85    80    82    1
   86    80    83    1
   87    83    84    1
   88    85    86    1
   89    85    87    1
   90    85    88    1
   91    88    89    1
   92    88    90    1
   93    90    91    1
   94    88    92    1
   95    92    93    1
   96    92    94    1
   97    94    95    1
   98    66    96    1
   99    92    96    1
  100    96    97    1
  101    96    98    1
  102    98    99    1
  103    85   100    1
  104    98   100    1
  105    98   101    1
  106   101   102    1
  107   101   103    1
  108   101   104    1
  109   104   105    1
  110   106   107    1
  111    12   108    1
  112   106   108    1
  113   106   109    1
  114   109   110    1
  115   109   111    1
  116   111   112    1
  117   109   113    1
  118   113   114    1
  119   113   115    1
  120   115   116    1
  121    87   117    1
  122   113   117    1
  123   117   118    1
  124   117   119    1
  125   119   120    1
  126   106   121    1
  127   119   121    1
  128   119   122    1
  129   122   123    1
  130   122   124    1
  131   122   125    1
  132   125   126    1
  133   127   128    1
  134   127   129    1
  135   127   130    1
  136   127   131    1
  137   131   132    1
  138   131   133    1
  139   131   134    1
  140   134   135    1
  141   134   136    1
  142   134   137    1
  143   137   138    1
  144   137   139    1
  145   137   140    1
  146   140   141    1
  147   140   142    1
  148   140   143    1
@<TRIPOS>SUBSTRUCTURE
       1 MOL1            1 RESIDUE      1      MOL     
       2 MOL1          143 RESIDUE      1      MOL     
@<SCITEGIC>MOL_PROPERTY
VM2 Rank
SciTegic.value.IntegerValue
4

@<SCITEGIC>MOL_PROPERTY
Conf_Id
SciTegic.value.IntegerValue
18010

@<SCITEGIC>MOL_PROPERTY
Probability
SciTegic.value.DoubleValue
1.34

@<SCITEGIC>MOL_PROPERTY
Sum Probability
SciTegic.value.DoubleValue
7.27

@<SCITEGIC>MOL_PROPERTY
Delta G
SciTegic.value.DoubleValue
0.241

@<SCITEGIC>MOL_PROPERTY
G
SciTegic.value.DoubleValue
538.773

@<SCITEGIC>MOL_PROPERTY
E
SciTegic.value.DoubleValue
350.007

@<SCITEGIC>MOL_PROPERTY
-TS
SciTegic.value.DoubleValue
188.766

@<SCITEGIC>MOL_PROPERTY
U+W
SciTegic.value.DoubleValue
223.919

@<SCITEGIC>MOL_PROPERTY
U
SciTegic.value.DoubleValue
292.898

@<SCITEGIC>MOL_PROPERTY
W
SciTegic.value.DoubleValue
-68.960

@<SCITEGIC>MOL_PROPERTY
W(PB)
SciTegic.value.DoubleValue
-74.942

@<SCITEGIC>MOL_PROPERTY
W(SA)
SciTegic.value.DoubleValue
5.982

@<SCITEGIC>MOL_PROPERTY
Valence
SciTegic.value.DoubleValue
144.105

@<SCITEGIC>MOL_PROPERTY
Coulomb
SciTegic.value.DoubleValue
167.296

@<SCITEGIC>MOL_PROPERTY
VdW
SciTegic.value.DoubleValue
-18.503

@<SCITEGIC>MOL_PROPERTY
VdW6
SciTegic.value.DoubleValue
-166.837

@<SCITEGIC>MOL_PROPERTY
VdW12
SciTegic.value.DoubleValue
148.335

@<SCITEGIC>MOL_PROPERTY
Bond
SciTegic.value.DoubleValue
4.450

@<SCITEGIC>MOL_PROPERTY
Angle
SciTegic.value.DoubleValue
10.844

@<SCITEGIC>MOL_PROPERTY
Pdih
SciTegic.value.DoubleValue
128.810

@<SCITEGIC>MOL_PROPERTY
Idih
SciTegic.value.DoubleValue
0.000

@<SCITEGIC>MOL_PROPERTY
Tether
SciTegic.value.DoubleValue
0.000

@<TRIPOS>MOLECULE
CD_guest-1_vm2_single.mol2 : vm2 host+ligand conformer 5
         143         148           2
SMALL
USER_CHARGES
 
@<TRIPOS>ATOM
       1    C1      16.441199   15.381627   21.754703 C.3        1 MOL1         0.2972
       2    H1      15.387501   15.257101   22.034610 H          1 MOL1         0.0751
       3    O1      16.670220   16.647281   21.099492 O.3        1 MOL1        -0.3740
       4    C2      17.346860   15.286382   23.010735 C.3        1 MOL1         0.1003
       5    H2      17.180108   14.296269   23.454738 H          1 MOL1         0.0783
       6    O2      17.026085   16.297317   23.979859 O.3        1 MOL1        -0.5519
       7    H3      16.099066   16.587012   23.801635 H          1 MOL1         0.3769
       8    C3      18.837530   15.396492   22.621507 C.3        1 MOL1         0.1053
       9    H4      19.006697   16.413896   22.249974 H          1 MOL1         0.0783
      10    O3      19.636227   15.167228   23.785403 O.3        1 MOL1        -0.5519
      11    H5      19.211863   15.714103   24.484973 H          1 MOL1         0.3769
      12    C4      19.213431   14.398432   21.496550 C.3        1 MOL1         0.1018
      13    H6      19.271103   13.388605   21.923863 H          1 MOL1         0.0783
      14    C5      18.187326   14.417552   20.329117 C.3        1 MOL1         0.1043
      15    H7      18.307155   15.359495   19.778541 H          1 MOL1         0.0783
      16    O4      16.837527   14.328971   20.849271 O.3        1 MOL1        -0.3740
      17    C6      18.383530   13.260997   19.323703 C.3        1 MOL1         0.0138
      18    H8      19.358681   13.376314   18.832119 H          1 MOL1         0.0794
      19    H9      17.613942   13.335926   18.543786 H          1 MOL1         0.0794
      20    O5      18.308209   11.989776   19.975381 O.3        1 MOL1        -0.5486
      21    H10     17.428307   11.955463   20.412617 H          1 MOL1         0.3769
      22    C7      14.741481   20.292075   20.652076 C.3        1 MOL1         0.2972
      23    H11     14.072413   21.127652   20.408967 H          1 MOL1         0.0751
      24    O6      16.054748   20.751762   21.028986 O.3        1 MOL1        -0.3740
      25    C8      14.160432   19.415657   21.790901 C.3        1 MOL1         0.1003
      26    H12     13.217391   18.993150   21.420088 H          1 MOL1         0.0783
      27    O7      13.887811   20.182144   22.973628 O.3        1 MOL1        -0.5519
      28    H13     14.745880   20.576093   23.273542 H          1 MOL1         0.3769
      29    C9      15.112809   18.237601   22.113485 C.3        1 MOL1         0.1053
      30    H14     16.032263   18.652671   22.549734 H          1 MOL1         0.0783
      31    O8      14.466603   17.382638   23.063402 O.3        1 MOL1        -0.5519
      32    H15     14.008045   17.994514   23.683877 H          1 MOL1         0.3769
      33    C10     15.499694   17.447495   20.828129 C.3        1 MOL1         0.1018
      34    H16     14.655025   16.819523   20.514600 H          1 MOL1         0.0783
      35    C11     15.885028   18.380725   19.648746 C.3        1 MOL1         0.1043
      36    H17     16.870985   18.816911   19.852030 H          1 MOL1         0.0783
      37    O9      14.894817   19.429240   19.506576 O.3        1 MOL1        -0.3740
      38    C12     15.962263   17.621920   18.307843 C.3        1 MOL1         0.0138
      39    H18     14.974714   17.205296   18.068311 H          1 MOL1         0.0794
      40    H19     16.663339   16.782478   18.406776 H          1 MOL1         0.0794
      41    O10     16.398106   18.506236   17.273013 O.3        1 MOL1        -0.5486
      42    H20     15.741770   19.239501   17.257219 H          1 MOL1         0.3769
      43    C13     18.386180   23.951728   22.007615 C.3        1 MOL1         0.2972
      44    H21     18.851417   24.902864   22.297014 H          1 MOL1         0.0751
      45    O11     19.345740   23.037123   21.437162 O.3        1 MOL1        -0.3740
      46    C14     17.720856   23.281911   23.235600 C.3        1 MOL1         0.1003
      47    H22     16.930655   23.957928   23.587477 H          1 MOL1         0.0783
      48    O12     18.665638   23.066414   24.296302 O.3        1 MOL1        -0.5519
      49    H23     19.511177   23.502337   24.027692 H          1 MOL1         0.3769
      50    C15     17.066438   21.941162   22.834500 C.3        1 MOL1         0.1053
      51    H24     17.873701   21.242251   22.590778 H          1 MOL1         0.0783
      52    O13     16.319995   21.430900   23.942613 O.3        1 MOL1        -0.5519
      53    H25     16.922123   21.531708   24.714262 H          1 MOL1         0.3769
      54    C16     16.153148   22.074785   21.587857 C.3        1 MOL1         0.1018
      55    H26     15.176518   22.463675   21.905680 H          1 MOL1         0.0783
      56    C17     16.752651   22.976921   20.469651 C.3        1 MOL1         0.1043
      57    H27     17.525677   22.399392   19.946127 H          1 MOL1         0.0783
      58    O14     17.346458   24.173533   21.032817 O.3        1 MOL1        -0.3740
      59    C18     15.714040   23.415220   19.413580 C.3        1 MOL1         0.0138
      60    H28     15.340684   22.526356   18.888026 H          1 MOL1         0.0794
      61    H29     16.213713   24.048535   18.668309 H          1 MOL1         0.0794
      62    O15     14.628242   24.123067   20.018527 O.3        1 MOL1        -0.5486
      63    H30     15.026280   24.888546   20.490043 H          1 MOL1         0.3769
      64    C19     23.436551   22.665306   20.850043 C.3        1 MOL1         0.2972
      65    H31     24.491685   22.808544   20.583656 H          1 MOL1         0.0751
      66    O16     23.154048   21.281800   21.151040 O.3        1 MOL1        -0.3740
      67    C20     23.038381   23.565089   22.052339 C.3        1 MOL1         0.1003
      68    H32     23.187007   24.605205   21.734022 H          1 MOL1         0.0783
      69    O17     23.850838   23.319753   23.209879 O.3        1 MOL1        -0.5519
      70    H33     23.674287   22.387559   23.494499 H          1 MOL1         0.3769
      71    C21     21.540776   23.386914   22.398211 C.3        1 MOL1         0.1053
      72    H34     21.395869   22.362921   22.770637 H          1 MOL1         0.0783
      73    O18     21.182530   24.329802   23.414191 O.3        1 MOL1        -0.5519
      74    H35     21.945170   24.335610   24.036561 H          1 MOL1         0.3769
      75    C22     20.647957   23.576677   21.142175 C.3        1 MOL1         0.1018
      76    H36     20.592671   24.642220   20.881634 H          1 MOL1         0.0783
      77    C23     21.178052   22.792110   19.913036 C.3        1 MOL1         0.1043
      78    H37     21.004369   21.722082   20.078694 H          1 MOL1         0.0783
      79    O19     22.594034   23.049650   19.742458 O.3        1 MOL1        -0.3740
      80    C24     20.461173   23.210058   18.610609 C.3        1 MOL1         0.0138
      81    H38     20.722458   24.249459   18.370847 H          1 MOL1         0.0794
      82    H39     19.375435   23.169200   18.765622 H          1 MOL1         0.0794
      83    O20     20.828552   22.339458   17.538079 O.3        1 MOL1        -0.5486
      84    H40     21.809278   22.369532   17.484325 H          1 MOL1         0.3769
      85    C25     24.904500   17.678151   22.161481 C.3        1 MOL1         0.2972
      86    H41     25.553604   16.855716   22.488891 H          1 MOL1         0.0751
      87    O21     23.729157   17.191881   21.482514 O.3        1 MOL1        -0.3740
      88    C26     24.476245   18.543917   23.375284 C.3        1 MOL1         0.1003
      89    H42     25.393083   18.956991   23.815803 H          1 MOL1         0.0783
      90    O22     23.785905   17.769854   24.369137 O.3        1 MOL1        -0.5519
      91    H43     23.868185   16.819056   24.112890 H          1 MOL1         0.3769
      92    C27     23.586668   19.724362   22.925048 C.3        1 MOL1         0.1053
      93    H44     22.632409   19.307087   22.584808 H          1 MOL1         0.0783
      94    O23     23.356955   20.587957   24.042163 O.3        1 MOL1        -0.5519
      95    H45     23.122082   19.980257   24.779548 H          1 MOL1         0.3769
      96    C28     24.220219   20.519226   21.753945 C.3        1 MOL1         0.1018
      97    H46     25.009571   21.166083   22.158959 H          1 MOL1         0.0783
      98    C29     24.815236   19.600284   20.647823 C.3        1 MOL1         0.1043
      99    H47     23.984582   19.160822   20.079986 H          1 MOL1         0.0783
     100    O24     25.608671   18.543359   21.245774 O.3        1 MOL1        -0.3740
     101    C30     25.714108   20.351434   19.640466 C.3        1 MOL1         0.0138
     102    H48     25.101835   21.072320   19.082740 H          1 MOL1         0.0794
     103    H49     26.109542   19.629461   18.913419 H          1 MOL1         0.0794
     104    O25     26.787013   21.025299   20.304412 O.3        1 MOL1        -0.5486
     105    H50     27.284221   20.334859   20.797034 H          1 MOL1         0.3769
     106    C31     21.504539   13.821210   20.797184 C.3        1 MOL1         0.2972
     107    H51     21.073643   12.845793   20.536661 H          1 MOL1         0.0751
     108    O26     20.478761   14.827679   20.953660 O.3        1 MOL1        -0.3740
     109    C32     22.370327   13.728529   22.081786 C.3        1 MOL1         0.1003
     110    H52     23.208982   13.057902   21.853156 H          1 MOL1         0.0783
     111    O27     21.641261   13.187740   23.192844 O.3        1 MOL1        -0.5519
     112    H53     20.935301   13.844779   23.417949 H          1 MOL1         0.3769
     113    C33     22.956816   15.114546   22.441112 C.3        1 MOL1         0.1053
     114    H54     22.124442   15.765944   22.741849 H          1 MOL1         0.0783
     115    O28     23.872620   14.965432   23.531061 O.3        1 MOL1        -0.5519
     116    H55     23.442807   14.322526   24.140050 H          1 MOL1         0.3769
     117    C34     23.670376   15.774420   21.228721 C.3        1 MOL1         0.1018
     118    H56     24.672562   15.341656   21.107803 H          1 MOL1         0.0783
     119    C35     22.897329   15.614478   19.890960 C.3        1 MOL1         0.1043
     120    H57     22.064490   16.323447   19.882417 H          1 MOL1         0.0783
     121    O29     22.394021   14.262811   19.750727 O.3        1 MOL1        -0.3740
     122    C36     23.784937   15.921979   18.668456 C.3        1 MOL1         0.0138
     123    H58     24.566897   15.155449   18.583640 H          1 MOL1         0.0794
     124    H59     24.280313   16.891125   18.816119 H          1 MOL1         0.0794
     125    O30     22.984123   15.960522   17.485655 O.3        1 MOL1        -0.5486
     126    H60     22.496813   15.107111   17.456953 H          1 MOL1         0.3769
     127    N1      19.154030   19.469574   17.301433 N.4        1 MOL1        -0.5891
     128    H1      19.112095   20.385645   16.840387 H          1 MOL1         0.3726
     129    H2      18.203481   19.065526   17.271942 H          1 MOL1         0.3726
     130    H3      19.757133   18.875104   16.726763 H          1 MOL1         0.3726
     131    C1      19.673122   19.606291   18.715348 C.3        1 MOL1         0.0314
     132    H4      20.630603   20.131241   18.660250 H          1 MOL1         0.0999
     133    H5      18.972158   20.232828   19.273482 H          1 MOL1         0.0999
     134    C2      19.874938   18.266460   19.443956 C.3        1 MOL1        -0.1308
     135    H6      18.914289   17.750831   19.564329 H          1 MOL1         0.1025
     136    H7      20.507233   17.614443   18.827294 H          1 MOL1         0.1025
     137    C3      20.541873   18.467421   20.822843 C.3        1 MOL1        -0.1243
     138    H8      21.516952   18.952331   20.682321 H          1 MOL1         0.1025
     139    H9      20.747409   17.491647   21.280202 H          1 MOL1         0.1025
     140    C4      19.679949   19.303297   21.793333 C.3        1 MOL1        -0.2258
     141    H10     19.559963   20.330250   21.430675 H          1 MOL1         0.1036
     142    H11     20.151217   19.356306   22.783447 H          1 MOL1         0.1036
     143    H12     18.681769   18.863013   21.920307 H          1 MOL1         0.1036
@<TRIPOS>BOND
    1     1     2    1
    2     1     3    1
    3     1     4    1
    4     4     5    1
    5     4     6    1
    6     6     7    1
    7     4     8    1
    8     8     9    1
    9     8    10    1
   10    10    11    1
   11     8    12    1
   12    12    13    1
   13    12    14    1
   14    14    15    1
   15     1    16    1
   16    14    16    1
   17    14    17    1
   18    17    18    1
   19    17    19    1
   20    17    20    1
   21    20    21    1
   22    22    23    1
   23    22    24    1
   24    22    25    1
   25    25    26    1
   26    25    27    1
   27    27    28    1
   28    25    29    1
   29    29    30    1
   30    29    31    1
   31    31    32    1
   32     3    33    1
   33    29    33    1
   34    33    34    1
   35    33    35    1
   36    35    36    1
   37    22    37    1
   38    35    37    1
   39    35    38    1
   40    38    39    1
   41    38    40    1
   42    38    41    1
   43    41    42    1
   44    43    44    1
   45    43    45    1
   46    43    46    1
   47    46    47    1
   48    46    48    1
   49    48    49    1
   50    46    50    1
   51    50    51    1
   52    50    52    1
   53    52    53    1
   54    24    54    1
   55    50    54    1
   56    54    55    1
   57    54    56    1
   58    56    57    1
   59    43    58    1
   60    56    58    1
   61    56    59    1
   62    59    60    1
   63    59    61    1
   64    59    62    1
   65    62    63    1
   66    64    65    1
   67    64    66    1
   68    64    67    1
   69    67    68    1
   70    67    69    1
   71    69    70    1
   72    67    71    1
   73    71    72    1
   74    71    73    1
   75    73    74    1
   76    45    75    1
   77    71    75    1
   78    75    76    1
   79    75    77    1
   80    77    78    1
   81    64    79    1
   82    77    79    1
   83    77    80    1
   84    80    81    1
   85    80    82    1
   86    80    83    1
   87    83    84    1
   88    85    86    1
   89    85    87    1
   90    85    88    1
   91    88    89    1
   92    88    90    1
   93    90    91    1
   94    88    92    1
   95    92    93    1
   96    92    94    1
   97    94    95    1
   98    66    96    1
   99    92    96    1
  100    96    97    1
  101    96    98    1
  102    98    99    1
  103    85   100    1
  104    98   100    1
  105    98   101    1
  106   101   102    1
  107   101   103    1
  108   101   104    1
  109   104   105    1
  110   106   107    1
  111    12   108    1
  112   106   108    1
  113   106   109    1
  114   109   110    1
  115   109   111    1
  116   111   112    1
  117   109   113    1
  118   113   114    1
  119   113   115    1
  120   115   116    1
  121    87   117    1
  122   113   117    1
  123   117   118    1
  124   117   119    1
  125   119   120    1
  126   106   121    1
  127   119   121    1
  128   119   122    1
  129   122   123    1
  130   122   124    1
  131   122   125    1
  132   125   126    1
  133   127   128    1
  134   127   129    1
  135   127   130    1
  136   127   131    1
  137   131   132    1
  138   131   133    1
  139   131   134    1
  140   134   135    1
  141   134   136    1
  142   134   137    1
  143   137   138    1
  144   137   139    1
  145   137   140    1
  146   140   141    1
  147   140   142    1
  148   140   143    1
@<TRIPOS>SUBSTRUCTURE
       1 MOL1            1 RESIDUE      1      MOL     
       2 MOL1          143 RESIDUE      1      MOL     
@<SCITEGIC>MOL_PROPERTY
VM2 Rank
SciTegic.value.IntegerValue
5

@<SCITEGIC>MOL_PROPERTY
Conf_Id
SciTegic.value.IntegerValue
21813

@<SCITEGIC>MOL_PROPERTY
Probability
SciTegic.value.DoubleValue
1.29

@<SCITEGIC>MOL_PROPERTY
Sum Probability
SciTegic.value.DoubleValue
8.55

@<SCITEGIC>MOL_PROPERTY
Delta G
SciTegic.value.DoubleValue
0.266

@<SCITEGIC>MOL_PROPERTY
G
SciTegic.value.DoubleValue
538.798

@<SCITEGIC>MOL_PROPERTY
E
SciTegic.value.DoubleValue
350.376

@<SCITEGIC>MOL_PROPERTY
-TS
SciTegic.value.DoubleValue
188.422

@<SCITEGIC>MOL_PROPERTY
U+W
SciTegic.value.DoubleValue
224.288

@<SCITEGIC>MOL_PROPERTY
U
SciTegic.value.DoubleValue
294.979

@<SCITEGIC>MOL_PROPERTY
W
SciTegic.value.DoubleValue
-70.691

@<SCITEGIC>MOL_PROPERTY
W(PB)
SciTegic.value.DoubleValue
-76.670

@<SCITEGIC>MOL_PROPERTY
W(SA)
SciTegic.value.DoubleValue
5.980

@<SCITEGIC>MOL_PROPERTY
Valence
SciTegic.value.DoubleValue
144.459

@<SCITEGIC>MOL_PROPERTY
Coulomb
SciTegic.value.DoubleValue
170.749

@<SCITEGIC>MOL_PROPERTY
VdW
SciTegic.value.DoubleValue
-20.228

@<SCITEGIC>MOL_PROPERTY
VdW6
SciTegic.value.DoubleValue
-169.472

@<SCITEGIC>MOL_PROPERTY
VdW12
SciTegic.value.DoubleValue
149.244

@<SCITEGIC>MOL_PROPERTY
Bond
SciTegic.value.DoubleValue
4.478

@<SCITEGIC>MOL_PROPERTY
Angle
SciTegic.value.DoubleValue
10.207

@<SCITEGIC>MOL_PROPERTY
Pdih
SciTegic.value.DoubleValue
129.773

@<SCITEGIC>MOL_PROPERTY
Idih
SciTegic.value.DoubleValue
0.000

@<SCITEGIC>MOL_PROPERTY
Tether
SciTegic.value.DoubleValue
0.000

@<TRIPOS>MOLECULE
CD_guest-1_vm2_single.mol2 : vm2 host+ligand conformer 6
         143         148           2
SMALL
USER_CHARGES
 
@<TRIPOS>ATOM
       1    C1      16.284508   15.225541   21.773028 C.3        1 MOL1         0.2972
       2    H1      15.218661   15.121413   22.013677 H          1 MOL1         0.0751
       3    O1      16.576322   16.514532   21.191831 O.3        1 MOL1        -0.3740
       4    C2      17.146731   15.027804   23.046640 C.3        1 MOL1         0.1003
       5    H2      16.958011   14.009286   23.410340 H          1 MOL1         0.0783
       6    O2      16.804030   15.966802   24.078259 O.3        1 MOL1        -0.5519
       7    H3      15.954939   16.396871   23.813099 H          1 MOL1         0.3769
       8    C3      18.649603   15.149536   22.713229 C.3        1 MOL1         0.1053
       9    H4      18.840145   16.191394   22.438279 H          1 MOL1         0.0783
      10    O3      19.413717   14.816221   23.875012 O.3        1 MOL1        -0.5519
      11    H5      18.971835   15.302869   24.607505 H          1 MOL1         0.3769
      12    C4      19.062757   14.256263   21.515839 C.3        1 MOL1         0.1018
      13    H6      19.173984   13.222027   21.867970 H          1 MOL1         0.0783
      14    C5      18.047525   14.313622   20.337760 C.3        1 MOL1         0.1043
      15    H7      18.177249   15.273848   19.821148 H          1 MOL1         0.0783
      16    O4      16.686699   14.211015   20.828509 O.3        1 MOL1        -0.3740
      17    C6      18.260342   13.194762   19.294060 C.3        1 MOL1         0.0138
      18    H8      19.244532   13.325648   18.824905 H          1 MOL1         0.0794
      19    H9      17.505273   13.300396   18.503562 H          1 MOL1         0.0794
      20    O5      18.170195   11.900781   19.897076 O.3        1 MOL1        -0.5486
      21    H10     17.282916   11.853698   20.318078 H          1 MOL1         0.3769
      22    C7      14.821037   20.236029   20.660625 C.3        1 MOL1         0.2972
      23    H11     14.176311   21.086840   20.405299 H          1 MOL1         0.0751
      24    O6      16.162024   20.665395   20.976179 O.3        1 MOL1        -0.3740
      25    C8      14.230974   19.419780   21.842780 C.3        1 MOL1         0.1003
      26    H12     13.252127   19.047636   21.513167 H          1 MOL1         0.0783
      27    O7      14.045600   20.224037   23.017241 O.3        1 MOL1        -0.5519
      28    H13     14.944692   20.521933   23.307605 H          1 MOL1         0.3769
      29    C9      15.116440   18.192300   22.170554 C.3        1 MOL1         0.1053
      30    H14     16.063644   18.560642   22.589417 H          1 MOL1         0.0783
      31    O8      14.436253   17.384663   23.137465 O.3        1 MOL1        -0.5519
      32    H15     14.036714   18.025814   23.768772 H          1 MOL1         0.3769
      33    C10     15.443846   17.359015   20.899474 C.3        1 MOL1         0.1018
      34    H16     14.566843   16.767859   20.603608 H          1 MOL1         0.0783
      35    C11     15.866598   18.251403   19.703698 C.3        1 MOL1         0.1043
      36    H17     16.862295   18.656320   19.912603 H          1 MOL1         0.0783
      37    O9      14.915599   19.332121   19.540079 O.3        1 MOL1        -0.3740
      38    C12     15.934860   17.470586   18.374695 C.3        1 MOL1         0.0138
      39    H18     14.929620   17.117734   18.108001 H          1 MOL1         0.0794
      40    H19     16.574729   16.587945   18.505484 H          1 MOL1         0.0794
      41    O10     16.464449   18.310284   17.345243 O.3        1 MOL1        -0.5486
      42    H20     15.873393   19.096567   17.317320 H          1 MOL1         0.3769
      43    C13     18.478306   23.911983   22.024656 C.3        1 MOL1         0.2972
      44    H21     18.883443   24.873053   22.366517 H          1 MOL1         0.0751
      45    O11     19.471503   23.133894   21.325667 O.3        1 MOL1        -0.3740
      46    C14     17.935772   23.094444   23.227056 C.3        1 MOL1         0.1003
      47    H22     17.136580   23.690578   23.686591 H          1 MOL1         0.0783
      48    O12     18.954277   22.839879   24.207452 O.3        1 MOL1        -0.5519
      49    H23     19.699053   23.462374   24.024983 H          1 MOL1         0.3769
      50    C15     17.325630   21.756085   22.753762 C.3        1 MOL1         0.1053
      51    H24     18.146273   21.126323   22.387630 H          1 MOL1         0.0783
      52    O13     16.687078   21.114575   23.862094 O.3        1 MOL1        -0.5519
      53    H25     17.341525   21.178584   24.593989 H          1 MOL1         0.3769
      54    C16     16.312912   21.955069   21.598136 C.3        1 MOL1         0.1018
      55    H26     15.367506   22.324814   22.016517 H          1 MOL1         0.0783
      56    C17     16.826838   22.935085   20.504801 C.3        1 MOL1         0.1043
      57    H27     17.609188   22.426250   19.926159 H          1 MOL1         0.0783
      58    O14     17.375294   24.128259   21.119364 O.3        1 MOL1        -0.3740
      59    C18     15.731159   23.377800   19.509615 C.3        1 MOL1         0.0138
      60    H28     15.391691   22.503400   18.938857 H          1 MOL1         0.0794
      61    H29     16.170206   24.084026   18.792205 H          1 MOL1         0.0794
      62    O15     14.626892   23.982362   20.188715 O.3        1 MOL1        -0.5486
      63    H30     14.994772   24.742208   20.692605 H          1 MOL1         0.3769
      64    C19     23.546218   22.872182   20.831039 C.3        1 MOL1         0.2972
      65    H31     24.614265   22.989921   20.606726 H          1 MOL1         0.0751
      66    O16     23.202040   21.486283   21.049708 O.3        1 MOL1        -0.3740
      67    C20     23.130804   23.729381   22.056169 C.3        1 MOL1         0.1003
      68    H32     23.291801   24.779445   21.779042 H          1 MOL1         0.0783
      69    O17     23.918093   23.436964   23.219673 O.3        1 MOL1        -0.5519
      70    H33     23.697371   22.509367   23.487544 H          1 MOL1         0.3769
      71    C21     21.625238   23.546246   22.362747 C.3        1 MOL1         0.1053
      72    H34     21.472361   22.513398   22.705908 H          1 MOL1         0.0783
      73    O18     21.252326   24.462580   23.398089 O.3        1 MOL1        -0.5519
      74    H35     22.008686   24.456291   24.028266 H          1 MOL1         0.3769
      75    C22     20.747068   23.766906   21.098559 C.3        1 MOL1         0.1018
      76    H36     20.633799   24.842598   20.908259 H          1 MOL1         0.0783
      77    C23     21.328659   23.095464   19.824437 C.3        1 MOL1         0.1043
      78    H37     21.144093   22.018835   19.883669 H          1 MOL1         0.0783
      79    O19     22.752589   23.347253   19.723056 O.3        1 MOL1        -0.3740
      80    C24     20.657550   23.612304   18.535875 C.3        1 MOL1         0.0138
      81    H38     20.934430   24.663061   18.376471 H          1 MOL1         0.0794
      82    H39     19.566516   23.567894   18.653852 H          1 MOL1         0.0794
      83    O20     21.057722   22.808597   17.423968 O.3        1 MOL1        -0.5486
      84    H40     22.040345   22.827704   17.411435 H          1 MOL1         0.3769
      85    C25     24.707107   17.776777   22.113261 C.3        1 MOL1         0.2972
      86    H41     25.315598   16.935300   22.468521 H          1 MOL1         0.0751
      87    O21     23.539704   17.322865   21.397632 O.3        1 MOL1        -0.3740
      88    C26     24.256698   18.655551   23.308421 C.3        1 MOL1         0.1003
      89    H42     25.166981   19.020866   23.801536 H          1 MOL1         0.0783
      90    O22     23.476360   17.905827   24.253972 O.3        1 MOL1        -0.5519
      91    H43     23.649434   16.948750   24.081460 H          1 MOL1         0.3769
      92    C27     23.448485   19.878660   22.819263 C.3        1 MOL1         0.1053
      93    H44     22.500269   19.507967   22.412368 H          1 MOL1         0.0783
      94    O23     23.192301   20.737711   23.933789 O.3        1 MOL1        -0.5519
      95    H45     22.880574   20.132697   24.644418 H          1 MOL1         0.3769
      96    C28     24.185625   20.652536   21.695670 C.3        1 MOL1         0.1018
      97    H46     24.996141   21.242424   22.143500 H          1 MOL1         0.0783
      98    C29     24.763733   19.706261   20.606176 C.3        1 MOL1         0.1043
      99    H47     23.928182   19.309134   20.014755 H          1 MOL1         0.0783
     100    O24     25.482256   18.611534   21.226623 O.3        1 MOL1        -0.3740
     101    C30     25.730369   20.413429   19.630287 C.3        1 MOL1         0.0138
     102    H48     25.174333   21.171530   19.062945 H          1 MOL1         0.0794
     103    H49     26.105720   19.675656   18.908420 H          1 MOL1         0.0794
     104    O25     26.819429   21.022538   20.329760 O.3        1 MOL1        -0.5486
     105    H50     27.260998   20.302507   20.832956 H          1 MOL1         0.3769
     106    C31     21.373783   13.860704   20.769276 C.3        1 MOL1         0.2972
     107    H51     20.989199   12.866759   20.506218 H          1 MOL1         0.0751
     108    O26     20.302692   14.795709   21.016511 O.3        1 MOL1        -0.3740
     109    C32     22.309767   13.794419   22.004932 C.3        1 MOL1         0.1003
     110    H52     23.173806   13.180251   21.719257 H          1 MOL1         0.0783
     111    O27     21.669137   13.186164   23.135789 O.3        1 MOL1        -0.5519
     112    H53     20.899581   13.760538   23.378533 H          1 MOL1         0.3769
     113    C33     22.832405   15.206366   22.366373 C.3        1 MOL1         0.1053
     114    H54     21.976881   15.811066   22.698301 H          1 MOL1         0.0783
     115    O28     23.783087   15.089333   23.430954 O.3        1 MOL1        -0.5519
     116    H55     23.410275   14.402624   24.029865 H          1 MOL1         0.3769
     117    C34     23.471779   15.906408   21.133020 C.3        1 MOL1         0.1018
     118    H56     24.469519   15.486821   20.947298 H          1 MOL1         0.0783
     119    C35     22.617005   15.754040   19.844814 C.3        1 MOL1         0.1043
     120    H57     21.748440   16.416642   19.933185 H          1 MOL1         0.0783
     121    O29     22.165534   14.385794   19.684327 O.3        1 MOL1        -0.3740
     122    C36     23.384106   16.151754   18.564326 C.3        1 MOL1         0.0138
     123    H58     23.716311   17.194573   18.654117 H          1 MOL1         0.0794
     124    H59     22.697156   16.096270   17.709384 H          1 MOL1         0.0794
     125    O30     24.508563   15.293532   18.351911 O.3        1 MOL1        -0.5486
     126    H60     24.156446   14.375508   18.360489 H          1 MOL1         0.3769
     127    N1      19.220916   19.144145   16.732648 N.4        1 MOL1        -0.5891
     128    H1      19.836662   18.386691   16.425758 H          1 MOL1         0.3726
     129    H2      19.160749   19.817630   15.963067 H          1 MOL1         0.3726
     130    H3      18.276146   18.742271   16.852810 H          1 MOL1         0.3726
     131    C1      19.705046   19.797062   18.010473 C.3        1 MOL1         0.0314
     132    H4      19.001806   20.596652   18.259056 H          1 MOL1         0.0999
     133    H5      20.682204   20.250346   17.820351 H          1 MOL1         0.0999
     134    C2      19.800170   18.809867   19.186806 C.3        1 MOL1        -0.1308
     135    H6      18.861547   18.251311   19.268462 H          1 MOL1         0.1025
     136    H7      20.584651   18.071821   18.984294 H          1 MOL1         0.1025
     137    C3      20.093221   19.540514   20.513856 C.3        1 MOL1        -0.1243
     138    H8      19.447048   20.424747   20.600441 H          1 MOL1         0.1025
     139    H9      21.130123   19.899020   20.509383 H          1 MOL1         0.1025
     140    C4      19.868900   18.638000   21.742455 C.3        1 MOL1        -0.2258
     141    H10     20.108995   19.176434   22.668766 H          1 MOL1         0.1036
     142    H11     20.502033   17.742094   21.699249 H          1 MOL1         0.1036
     143    H12     18.818731   18.324794   21.805158 H          1 MOL1         0.1036
@<TRIPOS>BOND
    1     1     2    1
    2     1     3    1
    3     1     4    1
    4     4     5    1
    5     4     6    1
    6     6     7    1
    7     4     8    1
    8     8     9    1
    9     8    10    1
   10    10    11    1
   11     8    12    1
   12    12    13    1
   13    12    14    1
   14    14    15    1
   15     1    16    1
   16    14    16    1
   17    14    17    1
   18    17    18    1
   19    17    19    1
   20    17    20    1
   21    20    21    1
   22    22    23    1
   23    22    24    1
   24    22    25    1
   25    25    26    1
   26    25    27    1
   27    27    28    1
   28    25    29    1
   29    29    30    1
   30    29    31    1
   31    31    32    1
   32     3    33    1
   33    29    33    1
   34    33    34    1
   35    33    35    1
   36    35    36    1
   37    22    37    1
   38    35    37    1
   39    35    38    1
   40    38    39    1
   41    38    40    1
   42    38    41    1
   43    41    42    1
   44    43    44    1
   45    43    45    1
   46    43    46    1
   47    46    47    1
   48    46    48    1
   49    48    49    1
   50    46    50    1
   51    50    51    1
   52    50    52    1
   53    52    53    1
   54    24    54    1
   55    50    54    1
   56    54    55    1
   57    54    56    1
   58    56    57    1
   59    43    58    1
   60    56    58    1
   61    56    59    1
   62    59    60    1
   63    59    61    1
   64    59    62    1
   65    62    63    1
   66    64    65    1
   67    64    66    1
   68    64    67    1
   69    67    68    1
   70    67    69    1
   71    69    70    1
   72    67    71    1
   73    71    72    1
   74    71    73    1
   75    73    74    1
   76    45    75    1
   77    71    75    1
   78    75    76    1
   79    75    77    1
   80    77    78    1
   81    64    79    1
   82    77    79    1
   83    77    80    1
   84    80    81    1
   85    80    82    1
   86    80    83    1
   87    83    84    1
   88    85    86    1
   89    85    87    1
   90    85    88    1
   91    88    89    1
   92    88    90    1
   93    90    91    1
   94    88    92    1
   95    92    93    1
   96    92    94    1
   97    94    95    1
   98    66    96    1
   99    92    96    1
  100    96    97    1
  101    96    98    1
  102    98    99    1
  103    85   100    1
  104    98   100    1
  105    98   101    1
  106   101   102    1
  107   101   103    1
  108   101   104    1
  109   104   105    1
  110   106   107    1
  111    12   108    1
  112   106   108    1
  113   106   109    1
  114   109   110    1
  115   109   111    1
  116   111   112    1
  117   109   113    1
  118   113   114    1
  119   113   115    1
  120   115   116    1
  121    87   117    1
  122   113   117    1
  123   117   118    1
  124   117   119    1
  125   119   120    1
  126   106   121    1
  127   119   121    1
  128   119   122    1
  129   122   123    1
  130   122   124    1
  131   122   125    1
  132   125   126    1
  133   127   128    1
  134   127   129    1
  135   127   130    1
  136   127   131    1
  137   131   132    1
  138   131   133    1
  139   131   134    1
  140   134   135    1
  141   134   136    1
  142   134   137    1
  143   137   138    1
  144   137   139    1
  145   137   140    1
  146   140   141    1
  147   140   142    1
  148   140   143    1
@<TRIPOS>SUBSTRUCTURE
       1 MOL1            1 RESIDUE      1      MOL     
       2 MOL1          143 RESIDUE      1      MOL     
@<SCITEGIC>MOL_PROPERTY
VM2 Rank
SciTegic.value.IntegerValue
6

@<SCITEGIC>MOL_PROPERTY
Conf_Id
SciTegic.value.IntegerValue
14087

@<SCITEGIC>MOL_PROPERTY
Probability
SciTegic.value.DoubleValue
1.12

@<SCITEGIC>MOL_PROPERTY
Sum Probability
SciTegic.value.DoubleValue
9.68

@<SCITEGIC>MOL_PROPERTY
Delta G
SciTegic.value.DoubleValue
0.347

@<SCITEGIC>MOL_PROPERTY
G
SciTegic.value.DoubleValue
538.879

@<SCITEGIC>MOL_PROPERTY
E
SciTegic.value.DoubleValue
351.157

@<SCITEGIC>MOL_PROPERTY
-TS
SciTegic.value.DoubleValue
187.722

@<SCITEGIC>MOL_PROPERTY
U+W
SciTegic.value.DoubleValue
225.068

@<SCITEGIC>MOL_PROPERTY
U
SciTegic.value.DoubleValue
302.231

@<SCITEGIC>MOL_PROPERTY
W
SciTegic.value.DoubleValue
-77.162

@<SCITEGIC>MOL_PROPERTY
W(PB)
SciTegic.value.DoubleValue
-83.207

@<SCITEGIC>MOL_PROPERTY
W(SA)
SciTegic.value.DoubleValue
6.045

@<SCITEGIC>MOL_PROPERTY
Valence
SciTegic.value.DoubleValue
144.125

@<SCITEGIC>MOL_PROPERTY
Coulomb
SciTegic.value.DoubleValue
176.553

@<SCITEGIC>MOL_PROPERTY
VdW
SciTegic.value.DoubleValue
-18.447

@<SCITEGIC>MOL_PROPERTY
VdW6
SciTegic.value.DoubleValue
-165.300

@<SCITEGIC>MOL_PROPERTY
VdW12
SciTegic.value.DoubleValue
146.853

@<SCITEGIC>MOL_PROPERTY
Bond
SciTegic.value.DoubleValue
4.501

@<SCITEGIC>MOL_PROPERTY
Angle
SciTegic.value.DoubleValue
10.449

@<SCITEGIC>MOL_PROPERTY
Pdih
SciTegic.value.DoubleValue
129.175

@<SCITEGIC>MOL_PROPERTY
Idih
SciTegic.value.DoubleValue
0.000

@<SCITEGIC>MOL_PROPERTY
Tether
SciTegic.value.DoubleValue
0.000

@<TRIPOS>MOLECULE
CD_guest-1_vm2_single.mol2 : vm2 host+ligand conformer 7
         143         148           2
SMALL
USER_CHARGES
 
@<TRIPOS>ATOM
       1    C1      16.272967   15.169941   21.934639 C.3        1 MOL1         0.2972
       2    H1      15.204310   15.110001   22.177814 H          1 MOL1         0.0751
       3    O1      16.613624   16.421135   21.303559 O.3        1 MOL1        -0.3740
       4    C2      17.131963   15.013189   23.213630 C.3        1 MOL1         0.1003
       5    H2      16.946646   14.007295   23.612415 H          1 MOL1         0.0783
       6    O2      16.778003   15.989585   24.206602 O.3        1 MOL1        -0.5519
       7    H3      15.991360   16.480697   23.864885 H          1 MOL1         0.3769
       8    C3      18.633910   15.128816   22.866910 C.3        1 MOL1         0.1053
       9    H4      18.825456   16.169384   22.569985 H          1 MOL1         0.0783
      10    O3      19.419428   14.810101   24.020381 O.3        1 MOL1        -0.5519
      11    H5      19.005786   15.320829   24.752205 H          1 MOL1         0.3769
      12    C4      19.041760   14.209265   21.686868 C.3        1 MOL1         0.1018
      13    H6      19.219297   13.196139   22.071376 H          1 MOL1         0.0783
      14    C5      18.004499   14.172801   20.525322 C.3        1 MOL1         0.1043
      15    H7      18.123156   15.093156   19.939242 H          1 MOL1         0.0783
      16    O4      16.651490   14.103121   21.041344 O.3        1 MOL1        -0.3740
      17    C6      18.200075   12.986190   19.555618 C.3        1 MOL1         0.0138
      18    H8      19.163119   13.098007   19.040702 H          1 MOL1         0.0794
      19    H9      17.415647   13.025292   18.787897 H          1 MOL1         0.0794
      20    O5      18.152698   11.736275   20.249240 O.3        1 MOL1        -0.5486
      21    H10     17.278775   11.701941   20.698421 H          1 MOL1         0.3769
      22    C7      14.972445   20.127067   20.443693 C.3        1 MOL1         0.2972
      23    H11     14.350089   20.960724   20.093817 H          1 MOL1         0.0751
      24    O6      16.288783   20.580890   20.825665 O.3        1 MOL1        -0.3740
      25    C8      14.291687   19.380592   21.625449 C.3        1 MOL1         0.1003
      26    H12     13.340382   18.985567   21.245719 H          1 MOL1         0.0783
      27    O7      14.016778   20.249137   22.734507 O.3        1 MOL1        -0.5519
      28    H13     14.891974   20.553544   23.084480 H          1 MOL1         0.3769
      29    C9      15.151122   18.178855   22.085444 C.3        1 MOL1         0.1053
      30    H14     16.083379   18.573327   22.513792 H          1 MOL1         0.0783
      31    O8      14.433928   17.442468   23.082036 O.3        1 MOL1        -0.5519
      32    H15     14.005194   18.126584   23.645199 H          1 MOL1         0.3769
      33    C10     15.521343   17.260148   20.889589 C.3        1 MOL1         0.1018
      34    H16     14.649364   16.669037   20.579186 H          1 MOL1         0.0783
      35    C11     16.046182   18.065886   19.673944 C.3        1 MOL1         0.1043
      36    H17     17.042241   18.443128   19.928512 H          1 MOL1         0.0783
      37    O9      15.143865   19.162889   19.383308 O.3        1 MOL1        -0.3740
      38    C12     16.171567   17.205106   18.398724 C.3        1 MOL1         0.0138
      39    H18     15.170719   16.894962   18.069785 H          1 MOL1         0.0794
      40    H19     16.741479   16.296370   18.628914 H          1 MOL1         0.0794
      41    O10     16.834177   17.945264   17.369621 O.3        1 MOL1        -0.5486
      42    H20     16.286678   18.749357   17.225831 H          1 MOL1         0.3769
      43    C13     18.476634   23.901535   21.959141 C.3        1 MOL1         0.2972
      44    H21     18.839327   24.878332   22.304419 H          1 MOL1         0.0751
      45    O11     19.535267   23.118244   21.370842 O.3        1 MOL1        -0.3740
      46    C14     17.847075   23.112507   23.136902 C.3        1 MOL1         0.1003
      47    H22     17.001635   23.706596   23.507795 H          1 MOL1         0.0783
      48    O12     18.782792   22.908540   24.207591 O.3        1 MOL1        -0.5519
      49    H23     19.567601   23.480681   24.025996 H          1 MOL1         0.3769
      50    C15     17.301963   21.749263   22.656154 C.3        1 MOL1         0.1053
      51    H24     18.161531   21.130873   22.373217 H          1 MOL1         0.0783
      52    O13     16.592935   21.125540   23.730981 O.3        1 MOL1        -0.5519
      53    H25     17.186910   21.226518   24.508991 H          1 MOL1         0.3769
      54    C16     16.381430   21.893247   21.417975 C.3        1 MOL1         0.1018
      55    H26     15.403272   22.265949   21.749045 H          1 MOL1         0.0783
      56    C17     16.967755   22.850251   20.340655 C.3        1 MOL1         0.1043
      57    H27     17.801030   22.339119   19.843376 H          1 MOL1         0.0783
      58    O14     17.448981   24.070820   20.959231 O.3        1 MOL1        -0.3740
      59    C18     15.950228   23.243613   19.246883 C.3        1 MOL1         0.0138
      60    H28     15.669167   22.346076   18.680248 H          1 MOL1         0.0794
      61    H29     16.436114   23.933529   18.543932 H          1 MOL1         0.0794
      62    O15     14.787138   23.851845   19.815241 O.3        1 MOL1        -0.5486
      63    H30     15.103008   24.632866   20.321986 H          1 MOL1         0.3769
      64    C19     23.629770   22.927478   21.056502 C.3        1 MOL1         0.2972
      65    H31     24.705873   23.059761   20.884696 H          1 MOL1         0.0751
      66    O16     23.282964   21.536356   21.223331 O.3        1 MOL1        -0.3740
      67    C20     23.148710   23.738628   22.288105 C.3        1 MOL1         0.1003
      68    H32     23.314145   24.799105   22.057175 H          1 MOL1         0.0783
      69    O17     23.884368   23.405164   23.474182 O.3        1 MOL1        -0.5519
      70    H33     23.699263   22.451958   23.670218 H          1 MOL1         0.3769
      71    C21     21.630884   23.533596   22.516492 C.3        1 MOL1         0.1053
      72    H34     21.474462   22.492149   22.831474 H          1 MOL1         0.0783
      73    O18     21.193707   24.423774   23.548858 O.3        1 MOL1        -0.5519
      74    H35     21.909020   24.401307   24.224800 H          1 MOL1         0.3769
      75    C22     20.811484   23.771809   21.216638 C.3        1 MOL1         0.1018
      76    H36     20.695203   24.850054   21.043174 H          1 MOL1         0.0783
      77    C23     21.463072   23.136179   19.959391 C.3        1 MOL1         0.1043
      78    H37     21.307589   22.052134   19.998868 H          1 MOL1         0.0783
      79    O19     22.881791   23.425711   19.928697 O.3        1 MOL1        -0.3740
      80    C24     20.839746   23.665293   18.651308 C.3        1 MOL1         0.0138
      81    H38     21.106922   24.722695   18.522159 H          1 MOL1         0.0794
      82    H39     19.745443   23.603674   18.720338 H          1 MOL1         0.0794
      83    O20     21.299964   22.888454   17.543884 O.3        1 MOL1        -0.5486
      84    H40     22.281605   22.918988   17.576581 H          1 MOL1         0.3769
      85    C25     24.777987   17.769077   22.000200 C.3        1 MOL1         0.2972
      86    H41     25.384130   16.896389   22.273502 H          1 MOL1         0.0751
      87    O21     23.575543   17.386121   21.299487 O.3        1 MOL1        -0.3740
      88    C26     24.389264   18.579931   23.264786 C.3        1 MOL1         0.1003
      89    H42     25.323872   18.913259   23.734557 H          1 MOL1         0.0783
      90    O22     23.647529   17.786483   24.204911 O.3        1 MOL1        -0.5519
      91    H43     23.853394   16.840565   24.010861 H          1 MOL1         0.3769
      92    C27     23.569493   19.831477   22.878607 C.3        1 MOL1         0.1053
      93    H44     22.606405   19.491980   22.475268 H          1 MOL1         0.0783
      94    O23     23.349653   20.622906   24.049815 O.3        1 MOL1        -0.5519
      95    H45     23.064936   19.974685   24.733368 H          1 MOL1         0.3769
      96    C28     24.282363   20.668831   21.787331 C.3        1 MOL1         0.1018
      97    H46     25.103835   21.231546   22.250443 H          1 MOL1         0.0783
      98    C29     24.823341   19.793465   20.621454 C.3        1 MOL1         0.1043
      99    H47     23.968605   19.450424   20.023597 H          1 MOL1         0.0783
     100    O24     25.538822   18.646473   21.142936 O.3        1 MOL1        -0.3740
     101    C30     25.777132   20.556139   19.675106 C.3        1 MOL1         0.0138
     102    H48     25.219046   21.359694   19.176455 H          1 MOL1         0.0794
     103    H49     26.125282   19.867399   18.893710 H          1 MOL1         0.0794
     104    O25     26.890517   21.099968   20.389983 O.3        1 MOL1        -0.5486
     105    H50     27.334478   20.340347   20.828753 H          1 MOL1         0.3769
     106    C31     21.306614   13.925070   20.767091 C.3        1 MOL1         0.2972
     107    H51     20.934788   12.930274   20.490329 H          1 MOL1         0.0751
     108    O26     20.236182   14.804883   21.154125 O.3        1 MOL1        -0.3740
     109    C32     22.335985   13.839358   21.924691 C.3        1 MOL1         0.1003
     110    H52     23.161666   13.207747   21.571776 H          1 MOL1         0.0783
     111    O27     21.764678   13.244819   23.101080 O.3        1 MOL1        -0.5519
     112    H53     21.001839   13.813969   23.376443 H          1 MOL1         0.3769
     113    C33     22.917710   15.234651   22.265502 C.3        1 MOL1         0.1053
     114    H54     22.113513   15.833304   22.716395 H          1 MOL1         0.0783
     115    O28     23.979178   15.055303   23.210155 O.3        1 MOL1        -0.5519
     116    H55     23.659073   14.351697   23.820245 H          1 MOL1         0.3769
     117    C34     23.416566   15.984382   20.993746 C.3        1 MOL1         0.1018
     118    H56     24.358274   15.543929   20.640282 H          1 MOL1         0.0783
     119    C35     22.369303   15.919390   19.852883 C.3        1 MOL1         0.1043
     120    H57     21.508254   16.526130   20.152972 H          1 MOL1         0.0783
     121    O29     21.971513   14.541576   19.645177 O.3        1 MOL1        -0.3740
     122    C36     22.880032   16.475793   18.508457 C.3        1 MOL1         0.0138
     123    H58     23.683220   15.831442   18.126723 H          1 MOL1         0.0794
     124    H59     23.299731   17.478089   18.665650 H          1 MOL1         0.0794
     125    O30     21.793642   16.541335   17.578398 O.3        1 MOL1        -0.5486
     126    H60     21.458475   15.619704   17.501714 H          1 MOL1         0.3769
     127    N1      19.686301   18.487718   16.773250 N.4        1 MOL1        -0.5891
     128    H1      20.341482   17.802831   17.182702 H          1 MOL1         0.3726
     129    H2      19.853170   18.481758   15.763413 H          1 MOL1         0.3726
     130    H3      18.726087   18.138837   16.927832 H          1 MOL1         0.3726
     131    C1      19.876763   19.868775   17.369983 C.3        1 MOL1         0.0314
     132    H4      19.291386   20.575383   16.775575 H          1 MOL1         0.0999
     133    H5      20.931938   20.139131   17.273096 H          1 MOL1         0.0999
     134    C2      19.444607   19.970379   18.845038 C.3        1 MOL1        -0.1308
     135    H6      19.618776   20.993892   19.189238 H          1 MOL1         0.1025
     136    H7      18.363245   19.811963   18.915444 H          1 MOL1         0.1025
     137    C3      20.194684   18.971622   19.756573 C.3        1 MOL1        -0.1243
     138    H8      21.278643   19.070575   19.602499 H          1 MOL1         0.1025
     139    H9      19.921122   17.945999   19.475034 H          1 MOL1         0.1025
     140    C4      19.874794   19.179897   21.251018 C.3        1 MOL1        -0.2258
     141    H10     20.409910   18.444112   21.865929 H          1 MOL1         0.1036
     142    H11     18.801401   19.060563   21.446883 H          1 MOL1         0.1036
     143    H12     20.180103   20.180959   21.583518 H          1 MOL1         0.1036
@<TRIPOS>BOND
    1     1     2    1
    2     1     3    1
    3     1     4    1
    4     4     5    1
    5     4     6    1
    6     6     7    1
    7     4     8    1
    8     8     9    1
    9     8    10    1
   10    10    11    1
   11     8    12    1
   12    12    13    1
   13    12    14    1
   14    14    15    1
   15     1    16    1
   16    14    16    1
   17    14    17    1
   18    17    18    1
   19    17    19    1
   20    17    20    1
   21    20    21    1
   22    22    23    1
   23    22    24    1
   24    22    25    1
   25    25    26    1
   26    25    27    1
   27    27    28    1
   28    25    29    1
   29    29    30    1
   30    29    31    1
   31    31    32    1
   32     3    33    1
   33    29    33    1
   34    33    34    1
   35    33    35    1
   36    35    36    1
   37    22    37    1
   38    35    37    1
   39    35    38    1
   40    38    39    1
   41    38    40    1
   42    38    41    1
   43    41    42    1
   44    43    44    1
   45    43    45    1
   46    43    46    1
   47    46    47    1
   48    46    48    1
   49    48    49    1
   50    46    50    1
   51    50    51    1
   52    50    52    1
   53    52    53    1
   54    24    54    1
   55    50    54    1
   56    54    55    1
   57    54    56    1
   58    56    57    1
   59    43    58    1
   60    56    58    1
   61    56    59    1
   62    59    60    1
   63    59    61    1
   64    59    62    1
   65    62    63    1
   66    64    65    1
   67    64    66    1
   68    64    67    1
   69    67    68    1
   70    67    69    1
   71    69    70    1
   72    67    71    1
   73    71    72    1
   74    71    73    1
   75    73    74    1
   76    45    75    1
   77    71    75    1
   78    75    76    1
   79    75    77    1
   80    77    78    1
   81    64    79    1
   82    77    79    1
   83    77    80    1
   84    80    81    1
   85    80    82    1
   86    80    83    1
   87    83    84    1
   88    85    86    1
   89    85    87    1
   90    85    88    1
   91    88    89    1
   92    88    90    1
   93    90    91    1
   94    88    92    1
   95    92    93    1
   96    92    94    1
   97    94    95    1
   98    66    96    1
   99    92    96    1
  100    96    97    1
  101    96    98    1
  102    98    99    1
  103    85   100    1
  104    98   100    1
  105    98   101    1
  106   101   102    1
  107   101   103    1
  108   101   104    1
  109   104   105    1
  110   106   107    1
  111    12   108    1
  112   106   108    1
  113   106   109    1
  114   109   110    1
  115   109   111    1
  116   111   112    1
  117   109   113    1
  118   113   114    1
  119   113   115    1
  120   115   116    1
  121    87   117    1
  122   113   117    1
  123   117   118    1
  124   117   119    1
  125   119   120    1
  126   106   121    1
  127   119   121    1
  128   119   122    1
  129   122   123    1
  130   122   124    1
  131   122   125    1
  132   125   126    1
  133   127   128    1
  134   127   129    1
  135   127   130    1
  136   127   131    1
  137   131   132    1
  138   131   133    1
  139   131   134    1
  140   134   135    1
  141   134   136    1
  142   134   137    1
  143   137   138    1
  144   137   139    1
  145   137   140    1
  146   140   141    1
  147   140   142    1
  148   140   143    1
@<TRIPOS>SUBSTRUCTURE
       1 MOL1            1 RESIDUE      1      MOL     
       2 MOL1          143 RESIDUE      1      MOL     
@<SCITEGIC>MOL_PROPERTY
VM2 Rank
SciTegic.value.IntegerValue
7

@<SCITEGIC>MOL_PROPERTY
Conf_Id
SciTegic.value.IntegerValue
12419

@<SCITEGIC>MOL_PROPERTY
Probability
SciTegic.value.DoubleValue
1.12

@<SCITEGIC>MOL_PROPERTY
Sum Probability
SciTegic.value.DoubleValue
10.80

@<SCITEGIC>MOL_PROPERTY
Delta G
SciTegic.value.DoubleValue
0.348

@<SCITEGIC>MOL_PROPERTY
G
SciTegic.value.DoubleValue
538.880

@<SCITEGIC>MOL_PROPERTY
E
SciTegic.value.DoubleValue
350.028

@<SCITEGIC>MOL_PROPERTY
-TS
SciTegic.value.DoubleValue
188.853

@<SCITEGIC>MOL_PROPERTY
U+W
SciTegic.value.DoubleValue
223.939

@<SCITEGIC>MOL_PROPERTY
U
SciTegic.value.DoubleValue
292.517

@<SCITEGIC>MOL_PROPERTY
W
SciTegic.value.DoubleValue
-68.577

@<SCITEGIC>MOL_PROPERTY
W(PB)
SciTegic.value.DoubleValue
-74.527

@<SCITEGIC>MOL_PROPERTY
W(SA)
SciTegic.value.DoubleValue
5.949

@<SCITEGIC>MOL_PROPERTY
Valence
SciTegic.value.DoubleValue
144.228

@<SCITEGIC>MOL_PROPERTY
Coulomb
SciTegic.value.DoubleValue
166.434

@<SCITEGIC>MOL_PROPERTY
VdW
SciTegic.value.DoubleValue
-18.145

@<SCITEGIC>MOL_PROPERTY
VdW6
SciTegic.value.DoubleValue
-166.730

@<SCITEGIC>MOL_PROPERTY
VdW12
SciTegic.value.DoubleValue
148.585

@<SCITEGIC>MOL_PROPERTY
Bond
SciTegic.value.DoubleValue
4.437

@<SCITEGIC>MOL_PROPERTY
Angle
SciTegic.value.DoubleValue
10.915

@<SCITEGIC>MOL_PROPERTY
Pdih
SciTegic.value.DoubleValue
128.876

@<SCITEGIC>MOL_PROPERTY
Idih
SciTegic.value.DoubleValue
0.000

@<SCITEGIC>MOL_PROPERTY
Tether
SciTegic.value.DoubleValue
0.000

@<TRIPOS>MOLECULE
CD_guest-1_vm2_single.mol2 : vm2 host+ligand conformer 8
         143         148           2
SMALL
USER_CHARGES
 
@<TRIPOS>ATOM
       1    C1      16.249824   15.257385   21.816204 C.3        1 MOL1         0.2972
       2    H1      15.198925   15.090893   22.085995 H          1 MOL1         0.0751
       3    O1      16.440495   16.537678   21.181194 O.3        1 MOL1        -0.3740
       4    C2      17.152944   15.165286   23.074712 C.3        1 MOL1         0.1003
       5    H2      17.036455   14.151908   23.480648 H          1 MOL1         0.0783
       6    O2      16.775508   16.118924   24.080328 O.3        1 MOL1        -0.5519
       7    H3      15.903307   16.499161   23.814397 H          1 MOL1         0.3769
       8    C3      18.639123   15.364982   22.703012 C.3        1 MOL1         0.1053
       9    H4      18.764916   16.408380   22.392577 H          1 MOL1         0.0783
      10    O3      19.446140   15.109447   23.856292 O.3        1 MOL1        -0.5519
      11    H5      18.996183   15.595434   24.584063 H          1 MOL1         0.3769
      12    C4      19.072679   14.448551   21.530327 C.3        1 MOL1         0.1018
      13    H6      19.213193   13.430820   21.917648 H          1 MOL1         0.0783
      14    C5      18.039639   14.425131   20.366959 C.3        1 MOL1         0.1043
      15    H7      18.100160   15.381701   19.831315 H          1 MOL1         0.0783
      16    O4      16.699261   14.244118   20.891586 O.3        1 MOL1        -0.3740
      17    C6      18.297800   13.303520   19.336240 C.3        1 MOL1         0.0138
      18    H8      19.255772   13.492817   18.833898 H          1 MOL1         0.0794
      19    H9      17.514265   13.343079   18.567677 H          1 MOL1         0.0794
      20    O5      18.314474   12.017388   19.962238 O.3        1 MOL1        -0.5486
      21    H10     17.443386   11.915036   20.406450 H          1 MOL1         0.3769
      22    C7      14.671530   20.183433   20.599136 C.3        1 MOL1         0.2972
      23    H11     14.058477   21.060215   20.353421 H          1 MOL1         0.0751
      24    O6      16.047952   20.552013   20.842434 O.3        1 MOL1        -0.3740
      25    C8      14.093480   19.417572   21.818661 C.3        1 MOL1         0.1003
      26    H12     13.103673   19.046817   21.521699 H          1 MOL1         0.0783
      27    O7      13.940820   20.260270   22.969855 O.3        1 MOL1        -0.5519
      28    H13     14.852740   20.520009   23.255814 H          1 MOL1         0.3769
      29    C9      14.975362   18.192769   22.158952 C.3        1 MOL1         0.1053
      30    H14     15.939333   18.564650   22.533280 H          1 MOL1         0.0783
      31    O8      14.325546   17.421720   23.175109 O.3        1 MOL1        -0.5519
      32    H15     13.951688   18.084900   23.799188 H          1 MOL1         0.3769
      33    C10     15.253487   17.309458   20.910751 C.3        1 MOL1         0.1018
      34    H16     14.387075   16.664365   20.712186 H          1 MOL1         0.0783
      35    C11     15.566828   18.127331   19.627960 C.3        1 MOL1         0.1043
      36    H17     16.596709   18.490436   19.690097 H          1 MOL1         0.0783
      37    O9      14.657202   19.248089   19.501143 O.3        1 MOL1        -0.3740
      38    C12     15.449904   17.271283   18.351107 C.3        1 MOL1         0.0138
      39    H18     14.400967   16.982783   18.200385 H          1 MOL1         0.0794
      40    H19     16.035821   16.350930   18.478282 H          1 MOL1         0.0794
      41    O10     15.938313   18.007465   17.227973 O.3        1 MOL1        -0.5486
      42    H20     15.443548   18.857038   17.221521 H          1 MOL1         0.3769
      43    C13     18.504907   23.714246   21.941541 C.3        1 MOL1         0.2972
      44    H21     18.909990   24.669546   22.298539 H          1 MOL1         0.0751
      45    O11     19.514242   22.924339   21.278333 O.3        1 MOL1        -0.3740
      46    C14     17.921224   22.901258   23.126601 C.3        1 MOL1         0.1003
      47    H22     17.129849   23.513075   23.579001 H          1 MOL1         0.0783
      48    O12     18.919612   22.613257   24.118896 O.3        1 MOL1        -0.5519
      49    H23     19.640701   23.278622   24.007432 H          1 MOL1         0.3769
      50    C15     17.287857   21.582844   22.629320 C.3        1 MOL1         0.1053
      51    H24     18.098334   20.947165   22.253093 H          1 MOL1         0.0783
      52    O13     16.638590   20.939608   23.729421 O.3        1 MOL1        -0.5519
      53    H25     17.294949   20.983517   24.461311 H          1 MOL1         0.3769
      54    C16     16.284592   21.827007   21.473238 C.3        1 MOL1         0.1018
      55    H26     15.363804   22.257181   21.888798 H          1 MOL1         0.0783
      56    C17     16.861565   22.774660   20.384758 C.3        1 MOL1         0.1043
      57    H27     17.641459   22.234121   19.833221 H          1 MOL1         0.0783
      58    O14     17.433834   23.953490   21.003375 O.3        1 MOL1        -0.3740
      59    C18     15.805424   23.244243   19.359531 C.3        1 MOL1         0.0138
      60    H28     15.442240   22.374213   18.796513 H          1 MOL1         0.0794
      61    H29     16.286805   23.920475   18.640409 H          1 MOL1         0.0794
      62    O15     14.712677   23.903116   20.006149 O.3        1 MOL1        -0.5486
      63    H30     15.101052   24.653953   20.508125 H          1 MOL1         0.3769
      64    C19     23.643600   22.804342   20.967700 C.3        1 MOL1         0.2972
      65    H31     24.710078   22.975975   20.772429 H          1 MOL1         0.0751
      66    O16     23.370291   21.417911   21.256738 O.3        1 MOL1        -0.3740
      67    C20     23.133760   23.685256   22.136993 C.3        1 MOL1         0.1003
      68    H32     23.242374   24.730908   21.820480 H          1 MOL1         0.0783
      69    O17     23.897976   23.487521   23.335564 O.3        1 MOL1        -0.5519
      70    H33     23.797681   22.536598   23.594161 H          1 MOL1         0.3769
      71    C21     21.629756   23.423564   22.397162 C.3        1 MOL1         0.1053
      72    H34     21.521318   22.394753   22.768309 H          1 MOL1         0.0783
      73    O18     21.173458   24.348899   23.390350 O.3        1 MOL1        -0.5519
      74    H35     21.911611   24.408362   24.039338 H          1 MOL1         0.3769
      75    C22     20.796540   23.558550   21.088420 C.3        1 MOL1         0.1018
      76    H36     20.679069   24.621077   20.836614 H          1 MOL1         0.0783
      77    C23     21.454382   22.835996   19.881755 C.3        1 MOL1         0.1043
      78    H37     21.329666   21.753152   20.007673 H          1 MOL1         0.0783
      79    O19     22.862781   23.170939   19.811674 O.3        1 MOL1        -0.3740
      80    C24     20.806699   23.244653   18.542467 C.3        1 MOL1         0.0138
      81    H38     20.945142   24.322886   18.386030 H          1 MOL1         0.0794
      82    H39     19.726798   23.050566   18.588636 H          1 MOL1         0.0794
      83    O20     21.393421   22.503996   17.470561 O.3        1 MOL1        -0.5486
      84    H40     22.357026   22.701203   17.508123 H          1 MOL1         0.3769
      85    C25     24.941963   17.758598   22.174255 C.3        1 MOL1         0.2972
      86    H41     25.526851   16.874170   22.458137 H          1 MOL1         0.0751
      87    O21     23.696773   17.397094   21.540921 O.3        1 MOL1        -0.3740
      88    C26     24.640516   18.627503   23.420728 C.3        1 MOL1         0.1003
      89    H42     25.604444   18.966851   23.821893 H          1 MOL1         0.0783
      90    O22     23.945274   17.880796   24.432134 O.3        1 MOL1        -0.5519
      91    H43     23.897139   16.943232   24.122449 H          1 MOL1         0.3769
      92    C27     23.816149   19.873566   23.028467 C.3        1 MOL1         0.1053
      93    H44     22.820794   19.528382   22.729794 H          1 MOL1         0.0783
      94    O23     23.695565   20.731515   24.166070 O.3        1 MOL1        -0.5519
      95    H45     23.455501   20.128629   24.905846 H          1 MOL1         0.3769
      96    C28     24.438606   20.643516   21.833959 C.3        1 MOL1         0.1018
      97    H46     25.253143   21.277605   22.208778 H          1 MOL1         0.0783
      98    C29     24.962655   19.712243   20.701770 C.3        1 MOL1         0.1043
      99    H47     24.096959   19.346292   20.133952 H          1 MOL1         0.0783
     100    O24     25.686258   18.583765   21.254371 O.3        1 MOL1        -0.3740
     101    C30     25.896250   20.430817   19.702713 C.3        1 MOL1         0.0138
     102    H48     25.330056   21.216797   19.185572 H          1 MOL1         0.0794
     103    H49     26.222055   19.709104   18.941712 H          1 MOL1         0.0794
     104    O25     27.029286   20.995874   20.368277 O.3        1 MOL1        -0.5486
     105    H50     27.476760   20.252455   20.830679 H          1 MOL1         0.3769
     106    C31     21.365181   14.064990   20.740811 C.3        1 MOL1         0.2972
     107    H51     20.971636   13.088986   20.428929 H          1 MOL1         0.0751
     108    O26     20.298601   15.000770   21.007596 O.3        1 MOL1        -0.3740
     109    C32     22.275417   13.924590   21.990918 C.3        1 MOL1         0.1003
     110    H52     23.116221   13.280637   21.701717 H          1 MOL1         0.0783
     111    O27     21.593055   13.317845   23.098402 O.3        1 MOL1        -0.5519
     112    H53     20.863172   13.934259   23.360073 H          1 MOL1         0.3769
     113    C33     22.852976   15.299399   22.401836 C.3        1 MOL1         0.1053
     114    H54     22.021482   15.930107   22.746873 H          1 MOL1         0.0783
     115    O28     23.793538   15.108330   23.464068 O.3        1 MOL1        -0.5519
     116    H55     23.382808   14.431690   24.049263 H          1 MOL1         0.3769
     117    C34     23.531782   16.007784   21.198452 C.3        1 MOL1         0.1018
     118    H56     24.496768   15.529301   20.983535 H          1 MOL1         0.0783
     119    C35     22.665446   15.970640   19.910163 C.3        1 MOL1         0.1043
     120    H57     21.821209   16.660918   20.029452 H          1 MOL1         0.0783
     121    O29     22.184910   14.620377   19.691628 O.3        1 MOL1        -0.3740
     122    C36     23.479897   16.398162   18.667072 C.3        1 MOL1         0.0138
     123    H58     24.159474   15.581686   18.388278 H          1 MOL1         0.0794
     124    H59     24.098645   17.267974   18.924522 H          1 MOL1         0.0794
     125    O30     22.618401   16.732317   17.573667 O.3        1 MOL1        -0.5486
     126    H60     23.180087   16.837520   16.776056 H          1 MOL1         0.3769
     127    N1      20.825503   19.655903   17.292970 N.4        1 MOL1        -0.5891
     128    H1      21.663250   19.304524   16.818786 H          1 MOL1         0.3726
     129    H2      20.920925   20.683110   17.351747 H          1 MOL1         0.3726
     130    H3      20.029799   19.456805   16.680773 H          1 MOL1         0.3726
     131    C1      20.666824   19.018765   18.656142 C.3        1 MOL1         0.0314
     132    H4      20.668419   17.934087   18.514461 H          1 MOL1         0.0999
     133    H5      21.540756   19.284846   19.256748 H          1 MOL1         0.0999
     134    C2      19.379014   19.435243   19.388856 C.3        1 MOL1        -0.1308
     135    H6      19.384734   20.515554   19.579745 H          1 MOL1         0.1025
     136    H7      18.517413   19.234952   18.738798 H          1 MOL1         0.1025
     137    C3      19.203864   18.668548   20.718519 C.3        1 MOL1        -0.1243
     138    H8      19.169342   17.590631   20.510715 H          1 MOL1         0.1025
     139    H9      18.237422   18.927114   21.169984 H          1 MOL1         0.1025
     140    C4      20.326521   18.966534   21.735062 C.3        1 MOL1        -0.2258
     141    H10     21.296608   18.617193   21.364330 H          1 MOL1         0.1036
     142    H11     20.133840   18.456153   22.687743 H          1 MOL1         0.1036
     143    H12     20.403099   20.042790   21.940258 H          1 MOL1         0.1036
@<TRIPOS>BOND
    1     1     2    1
    2     1     3    1
    3     1     4    1
    4     4     5    1
    5     4     6    1
    6     6     7    1
    7     4     8    1
    8     8     9    1
    9     8    10    1
   10    10    11    1
   11     8    12    1
   12    12    13    1
   13    12    14    1
   14    14    15    1
   15     1    16    1
   16    14    16    1
   17    14    17    1
   18    17    18    1
   19    17    19    1
   20    17    20    1
   21    20    21    1
   22    22    23    1
   23    22    24    1
   24    22    25    1
   25    25    26    1
   26    25    27    1
   27    27    28    1
   28    25    29    1
   29    29    30    1
   30    29    31    1
   31    31    32    1
   32     3    33    1
   33    29    33    1
   34    33    34    1
   35    33    35    1
   36    35    36    1
   37    22    37    1
   38    35    37    1
   39    35    38    1
   40    38    39    1
   41    38    40    1
   42    38    41    1
   43    41    42    1
   44    43    44    1
   45    43    45    1
   46    43    46    1
   47    46    47    1
   48    46    48    1
   49    48    49    1
   50    46    50    1
   51    50    51    1
   52    50    52    1
   53    52    53    1
   54    24    54    1
   55    50    54    1
   56    54    55    1
   57    54    56    1
   58    56    57    1
   59    43    58    1
   60    56    58    1
   61    56    59    1
   62    59    60    1
   63    59    61    1
   64    59    62    1
   65    62    63    1
   66    64    65    1
   67    64    66    1
   68    64    67    1
   69    67    68    1
   70    67    69    1
   71    69    70    1
   72    67    71    1
   73    71    72    1
   74    71    73    1
   75    73    74    1
   76    45    75    1
   77    71    75    1
   78    75    76    1
   79    75    77    1
   80    77    78    1
   81    64    79    1
   82    77    79    1
   83    77    80    1
   84    80    81    1
   85    80    82    1
   86    80    83    1
   87    83    84    1
   88    85    86    1
   89    85    87    1
   90    85    88    1
   91    88    89    1
   92    88    90    1
   93    90    91    1
   94    88    92    1
   95    92    93    1
   96    92    94    1
   97    94    95    1
   98    66    96    1
   99    92    96    1
  100    96    97    1
  101    96    98    1
  102    98    99    1
  103    85   100    1
  104    98   100    1
  105    98   101    1
  106   101   102    1
  107   101   103    1
  108   101   104    1
  109   104   105    1
  110   106   107    1
  111    12   108    1
  112   106   108    1
  113   106   109    1
  114   109   110    1
  115   109   111    1
  116   111   112    1
  117   109   113    1
  118   113   114    1
  119   113   115    1
  120   115   116    1
  121    87   117    1
  122   113   117    1
  123   117   118    1
  124   117   119    1
  125   119   120    1
  126   106   121    1
  127   119   121    1
  128   119   122    1
  129   122   123    1
  130   122   124    1
  131   122   125    1
  132   125   126    1
  133   127   128    1
  134   127   129    1
  135   127   130    1
  136   127   131    1
  137   131   132    1
  138   131   133    1
  139   131   134    1
  140   134   135    1
  141   134   136    1
  142   134   137    1
  143   137   138    1
  144   137   139    1
  145   137   140    1
  146   140   141    1
  147   140   142    1
  148   140   143    1
@<TRIPOS>SUBSTRUCTURE
       1 MOL1            1 RESIDUE      1      MOL     
       2 MOL1          143 RESIDUE      1      MOL     
@<SCITEGIC>MOL_PROPERTY
VM2 Rank
SciTegic.value.IntegerValue
8

@<SCITEGIC>MOL_PROPERTY
Conf_Id
SciTegic.value.IntegerValue
22296

@<SCITEGIC>MOL_PROPERTY
Probability
SciTegic.value.DoubleValue
1.05

@<SCITEGIC>MOL_PROPERTY
Sum Probability
SciTegic.value.DoubleValue
11.85

@<SCITEGIC>MOL_PROPERTY
Delta G
SciTegic.value.DoubleValue
0.388

@<SCITEGIC>MOL_PROPERTY
G
SciTegic.value.DoubleValue
538.920

@<SCITEGIC>MOL_PROPERTY
E
SciTegic.value.DoubleValue
350.872

@<SCITEGIC>MOL_PROPERTY
-TS
SciTegic.value.DoubleValue
188.047

@<SCITEGIC>MOL_PROPERTY
U+W
SciTegic.value.DoubleValue
224.784

@<SCITEGIC>MOL_PROPERTY
U
SciTegic.value.DoubleValue
299.351

@<SCITEGIC>MOL_PROPERTY
W
SciTegic.value.DoubleValue
-74.567

@<SCITEGIC>MOL_PROPERTY
W(PB)
SciTegic.value.DoubleValue
-80.576

@<SCITEGIC>MOL_PROPERTY
W(SA)
SciTegic.value.DoubleValue
6.009

@<SCITEGIC>MOL_PROPERTY
Valence
SciTegic.value.DoubleValue
144.172

@<SCITEGIC>MOL_PROPERTY
Coulomb
SciTegic.value.DoubleValue
175.186

@<SCITEGIC>MOL_PROPERTY
VdW
SciTegic.value.DoubleValue
-20.008

@<SCITEGIC>MOL_PROPERTY
VdW6
SciTegic.value.DoubleValue
-168.953

@<SCITEGIC>MOL_PROPERTY
VdW12
SciTegic.value.DoubleValue
148.946

@<SCITEGIC>MOL_PROPERTY
Bond
SciTegic.value.DoubleValue
4.491

@<SCITEGIC>MOL_PROPERTY
Angle
SciTegic.value.DoubleValue
10.212

@<SCITEGIC>MOL_PROPERTY
Pdih
SciTegic.value.DoubleValue
129.470

@<SCITEGIC>MOL_PROPERTY
Idih
SciTegic.value.DoubleValue
0.000

@<SCITEGIC>MOL_PROPERTY
Tether
SciTegic.value.DoubleValue
0.000

