@<TRIPOS>MOLECULE
CD_guest-s17_vm2_single.mol2 : vm2 host+ligand conformer 1
         151         157           2
SMALL
USER_CHARGES
 
@<TRIPOS>ATOM
       1    C1      16.200901   15.125174   21.512865 C.3        1 MOL1         0.2972
       2    H1      15.111441   15.009539   21.448976 H          1 MOL1         0.0751
       3    O1      16.611109   16.481564   21.242483 O.3        1 MOL1        -0.3740
       4    C2      16.699313   14.715376   22.920929 C.3        1 MOL1         0.1003
       5    H2      16.459273   13.653457   23.061529 H          1 MOL1         0.0783
       6    O2      16.058039   15.483511   23.948014 O.3        1 MOL1        -0.5519
       7    H3      16.588956   15.304678   24.756250 H          1 MOL1         0.3769
       8    C3      18.232141   14.874597   23.017182 C.3        1 MOL1         0.1053
       9    H4      18.456651   15.943508   22.936917 H          1 MOL1         0.0783
      10    O3      18.699868   14.365525   24.272451 O.3        1 MOL1        -0.5519
      11    H5      19.686254   14.330494   24.214891 H          1 MOL1         0.3769
      12    C4      18.956867   14.145592   21.860484 C.3        1 MOL1         0.1018
      13    H6      18.954057   13.068841   22.075601 H          1 MOL1         0.0783
      14    C5      18.303793   14.409409   20.473416 C.3        1 MOL1         0.1043
      15    H7      18.558668   15.431876   20.165437 H          1 MOL1         0.0783
      16    O4      16.861160   14.268458   20.557031 O.3        1 MOL1        -0.3740
      17    C6      18.797743   13.447245   19.370270 C.3        1 MOL1         0.0138
      18    H8      19.873794   13.595944   19.215466 H          1 MOL1         0.0794
      19    H9      18.295094   13.703629   18.428132 H          1 MOL1         0.0794
      20    O5      18.532244   12.085213   19.718511 O.3        1 MOL1        -0.5486
      21    H10     17.564023   12.027163   19.878961 H          1 MOL1         0.3769
      22    C7      15.012202   20.218138   20.361647 C.3        1 MOL1         0.2972
      23    H11     14.416922   21.045582   19.954130 H          1 MOL1         0.0751
      24    O6      16.189353   20.695581   21.043816 O.3        1 MOL1        -0.3740
      25    C8      14.175276   19.385811   21.367541 C.3        1 MOL1         0.1003
      26    H12     13.295063   19.009818   20.830732 H          1 MOL1         0.0783
      27    O7      13.740048   20.222041   22.452950 O.3        1 MOL1        -0.5519
      28    H13     14.540292   20.676519   22.816990 H          1 MOL1         0.3769
      29    C9      14.978790   18.157535   21.878257 C.3        1 MOL1         0.1053
      30    H14     15.792579   18.528574   22.513638 H          1 MOL1         0.0783
      31    O8      14.132654   17.286681   22.638628 O.3        1 MOL1        -0.5519
      32    H15     14.735389   16.694037   23.152070 H          1 MOL1         0.3769
      33    C10     15.607431   17.360866   20.701061 C.3        1 MOL1         0.1018
      34    H16     14.823016   16.801069   20.174172 H          1 MOL1         0.0783
      35    C11     16.327098   18.275532   19.677962 C.3        1 MOL1         0.1043
      36    H17     17.241831   18.678116   20.133189 H          1 MOL1         0.0783
      37    O9      15.433009   19.345494   19.293876 O.3        1 MOL1        -0.3740
      38    C12     16.713305   17.514777   18.392228 C.3        1 MOL1         0.0138
      39    H18     15.801006   17.170973   17.886589 H          1 MOL1         0.0794
      40    H19     17.301355   16.626987   18.656804 H          1 MOL1         0.0794
      41    O10     17.474547   18.364010   17.531495 O.3        1 MOL1        -0.5486
      42    H20     16.940593   19.180727   17.415262 H          1 MOL1         0.3769
      43    C13     18.322293   24.170004   21.766554 C.3        1 MOL1         0.2972
      44    H21     18.674125   25.201084   21.897068 H          1 MOL1         0.0751
      45    O11     19.406728   23.220711   21.810965 O.3        1 MOL1        -0.3740
      46    C14     17.308112   23.792709   22.877843 C.3        1 MOL1         0.1003
      47    H22     16.445759   24.465923   22.784384 H          1 MOL1         0.0783
      48    O12     17.887351   23.934508   24.187243 O.3        1 MOL1        -0.5519
      49    H23     17.937311   24.894160   24.383993 H          1 MOL1         0.3769
      50    C15     16.807111   22.343733   22.672115 C.3        1 MOL1         0.1053
      51    H24     17.658998   21.671616   22.826706 H          1 MOL1         0.0783
      52    O13     15.778585   22.055665   23.624788 O.3        1 MOL1        -0.5519
      53    H25     16.145454   22.352414   24.486836 H          1 MOL1         0.3769
      54    C16     16.274180   22.121348   21.235648 C.3        1 MOL1         0.1018
      55    H26     15.290720   22.603652   21.157391 H          1 MOL1         0.0783
      56    C17     17.233408   22.685399   20.148691 C.3        1 MOL1         0.1043
      57    H27     18.114571   22.032203   20.092353 H          1 MOL1         0.0783
      58    O14     17.646175   24.029641   20.499251 O.3        1 MOL1        -0.3740
      59    C18     16.603285   22.746216   18.739161 C.3        1 MOL1         0.0138
      60    H28     16.390831   21.725777   18.395425 H          1 MOL1         0.0794
      61    H29     17.335703   23.177397   18.043693 H          1 MOL1         0.0794
      62    O15     15.403785   23.525850   18.742207 O.3        1 MOL1        -0.5486
      63    H30     15.654684   24.414624   19.079195 H          1 MOL1         0.3769
      64    C19     23.504924   22.764475   21.767494 C.3        1 MOL1         0.2972
      65    H31     24.595503   22.885689   21.778545 H          1 MOL1         0.0751
      66    O16     23.122993   21.411192   21.446494 O.3        1 MOL1        -0.3740
      67    C20     22.911691   23.143072   23.147133 C.3        1 MOL1         0.1003
      68    H32     23.146670   24.201252   23.321253 H          1 MOL1         0.0783
      69    O17     23.487057   22.358355   24.201069 O.3        1 MOL1        -0.5519
      70    H33     23.024561   22.668469   25.013072 H          1 MOL1         0.3769
      71    C21     21.372322   22.995458   23.142800 C.3        1 MOL1         0.1053
      72    H34     21.126779   21.932351   23.034506 H          1 MOL1         0.0783
      73    O18     20.835595   23.490639   24.374938 O.3        1 MOL1        -0.5519
      74    H35     19.853221   23.414367   24.305579 H          1 MOL1         0.3769
      75    C22     20.736076   23.754942   21.952487 C.3        1 MOL1         0.1018
      76    H36     20.731616   24.828392   22.183019 H          1 MOL1         0.0783
      77    C23     21.478306   23.507695   20.608771 C.3        1 MOL1         0.1043
      78    H37     21.244319   22.490295   20.269603 H          1 MOL1         0.0783
      79    O19     22.910739   23.643505   20.789551 O.3        1 MOL1        -0.3740
      80    C24     21.054727   24.486929   19.491657 C.3        1 MOL1         0.0138
      81    H38     19.986583   24.350428   19.278577 H          1 MOL1         0.0794
      82    H39     21.605975   24.236138   18.575457 H          1 MOL1         0.0794
      83    O20     21.313019   25.842211   19.870606 O.3        1 MOL1        -0.5486
      84    H40     22.270821   25.887208   20.088072 H          1 MOL1         0.3769
      85    C25     24.851719   17.682484   20.751849 C.3        1 MOL1         0.2972
      86    H41     25.489474   16.863257   20.395882 H          1 MOL1         0.0751
      87    O21     23.680197   17.183853   21.429993 O.3        1 MOL1        -0.3740
      88    C26     25.642785   18.592168   21.729277 C.3        1 MOL1         0.1003
      89    H42     26.527288   18.958528   21.192256 H          1 MOL1         0.0783
      90    O22     26.061178   17.856833   22.888441 O.3        1 MOL1        -0.5519
      91    H43     26.410080   18.538330   23.505307 H          1 MOL1         0.3769
      92    C27     24.809552   19.821734   22.167654 C.3        1 MOL1         0.1053
      93    H44     24.001813   19.456786   22.808363 H          1 MOL1         0.0783
      94    O23     25.635202   20.719443   22.919563 O.3        1 MOL1        -0.5519
      95    H45     25.019017   21.313971   23.412840 H          1 MOL1         0.3769
      96    C28     24.170509   20.551932   20.954095 C.3        1 MOL1         0.1018
      97    H46     24.939212   21.122775   20.416311 H          1 MOL1         0.0783
      98    C29     23.498119   19.562912   19.965944 C.3        1 MOL1         0.1043
      99    H47     22.596975   19.150800   20.439846 H          1 MOL1         0.0783
     100    O24     24.420020   18.495487   19.641543 O.3        1 MOL1        -0.3740
     101    C30     23.074943   20.228919   18.637533 C.3        1 MOL1         0.0138
     102    H48     22.364000   21.037465   18.850042 H          1 MOL1         0.0794
     103    H49     22.552678   19.484885   18.021433 H          1 MOL1         0.0794
     104    O25     24.210047   20.743532   17.935319 O.3        1 MOL1        -0.5486
     105    H50     24.844471   19.996004   17.862035 H          1 MOL1         0.3769
     106    C31     21.369966   13.739496   21.738945 C.3        1 MOL1         0.2972
     107    H51     21.003468   12.705517   21.764692 H          1 MOL1         0.0751
     108    O26     20.290880   14.691329   21.833265 O.3        1 MOL1        -0.3740
     109    C32     22.349120   13.991019   22.913950 C.3        1 MOL1         0.1003
     110    H52     23.176280   13.276350   22.813726 H          1 MOL1         0.0783
     111    O27     21.700462   13.795664   24.178970 O.3        1 MOL1        -0.5519
     112    H53     22.348256   14.120865   24.843555 H          1 MOL1         0.3769
     113    C33     22.938650   15.418776   22.847920 C.3        1 MOL1         0.1053
     114    H54     22.123525   16.119304   23.058859 H          1 MOL1         0.0783
     115    O28     23.975595   15.565723   23.825603 O.3        1 MOL1        -0.5519
     116    H55     24.439623   16.410837   23.613796 H          1 MOL1         0.3769
     117    C34     23.510028   15.751434   21.448536 C.3        1 MOL1         0.1018
     118    H56     24.468646   15.227415   21.337524 H          1 MOL1         0.0783
     119    C35     22.544493   15.341984   20.299002 C.3        1 MOL1         0.1043
     120    H57     21.687879   16.029172   20.299824 H          1 MOL1         0.0783
     121    O29     22.084872   13.984412   20.509908 O.3        1 MOL1        -0.3740
     122    C36     23.186842   15.382344   18.893851 C.3        1 MOL1         0.0138
     123    H58     23.428563   16.419277   18.632533 H          1 MOL1         0.0794
     124    H59     22.449034   15.030129   18.160636 H          1 MOL1         0.0794
     125    O30     24.363469   14.570134   18.839275 O.3        1 MOL1        -0.5486
     126    H60     24.083562   13.664394   19.099238 H          1 MOL1         0.3769
     127    C1      18.240428   19.370872   24.223207 C.3        1 MOL1        -0.1684
     128    H1      18.665745   20.316134   24.578659 H          1 MOL1         0.0833
     129    H2      17.189413   19.606945   24.012811 H          1 MOL1         0.0833
     130    C2      18.892388   18.947130   22.881450 C.3        1 MOL1        -0.1684
     131    H3      18.174753   18.312064   22.349763 H          1 MOL1         0.0833
     132    H4      19.028913   19.834054   22.248530 H          1 MOL1         0.0833
     133    C3      20.223771   18.163521   22.962519 C.3        1 MOL1        -0.1684
     134    H5      20.481870   17.838441   21.945658 H          1 MOL1         0.0833
     135    H6      20.089972   17.236479   23.527565 H          1 MOL1         0.0833
     136    C4      21.433574   18.942159   23.526069 C.3        1 MOL1        -0.1760
     137    H7      22.305515   18.285256   23.445910 H          1 MOL1         0.0833
     138    H8      21.633776   19.798548   22.875813 H          1 MOL1         0.0833
     139    C5      21.352894   19.423996   24.992607 C.3        1 MOL1         0.1219
     140    H9      20.713649   20.312632   25.053116 H          1 MOL1         0.0790
     141    C6      20.834112   18.352676   25.986489 C.3        1 MOL1        -0.1760
     142    H10     20.989843   17.343316   25.586965 H          1 MOL1         0.0833
     143    H11     21.449328   18.397810   26.895024 H          1 MOL1         0.0833
     144    C7      19.358454   18.539357   26.430006 C.3        1 MOL1        -0.1684
     145    H12     19.234256   19.542445   26.860171 H          1 MOL1         0.0833
     146    H13     19.166087   17.838296   27.253249 H          1 MOL1         0.0833
     147    C8      18.270866   18.306120   25.349064 C.3        1 MOL1        -0.1684
     148    H14     17.298195   18.337218   25.858413 H          1 MOL1         0.0833
     149    H15     18.342664   17.292527   24.936851 H          1 MOL1         0.0833
     150    O1      22.668762   19.799653   25.383668 O.3        1 MOL1        -0.5508
     151    H16     22.939507   20.546334   24.804826 H          1 MOL1         0.3780
@<TRIPOS>BOND
    1     1     2    1
    2     1     3    1
    3     1     4    1
    4     4     5    1
    5     4     6    1
    6     6     7    1
    7     4     8    1
    8     8     9    1
    9     8    10    1
   10    10    11    1
   11     8    12    1
   12    12    13    1
   13    12    14    1
   14    14    15    1
   15     1    16    1
   16    14    16    1
   17    14    17    1
   18    17    18    1
   19    17    19    1
   20    17    20    1
   21    20    21    1
   22    22    23    1
   23    22    24    1
   24    22    25    1
   25    25    26    1
   26    25    27    1
   27    27    28    1
   28    25    29    1
   29    29    30    1
   30    29    31    1
   31    31    32    1
   32     3    33    1
   33    29    33    1
   34    33    34    1
   35    33    35    1
   36    35    36    1
   37    22    37    1
   38    35    37    1
   39    35    38    1
   40    38    39    1
   41    38    40    1
   42    38    41    1
   43    41    42    1
   44    43    44    1
   45    43    45    1
   46    43    46    1
   47    46    47    1
   48    46    48    1
   49    48    49    1
   50    46    50    1
   51    50    51    1
   52    50    52    1
   53    52    53    1
   54    24    54    1
   55    50    54    1
   56    54    55    1
   57    54    56    1
   58    56    57    1
   59    43    58    1
   60    56    58    1
   61    56    59    1
   62    59    60    1
   63    59    61    1
   64    59    62    1
   65    62    63    1
   66    64    65    1
   67    64    66    1
   68    64    67    1
   69    67    68    1
   70    67    69    1
   71    69    70    1
   72    67    71    1
   73    71    72    1
   74    71    73    1
   75    73    74    1
   76    45    75    1
   77    71    75    1
   78    75    76    1
   79    75    77    1
   80    77    78    1
   81    64    79    1
   82    77    79    1
   83    77    80    1
   84    80    81    1
   85    80    82    1
   86    80    83    1
   87    83    84    1
   88    85    86    1
   89    85    87    1
   90    85    88    1
   91    88    89    1
   92    88    90    1
   93    90    91    1
   94    88    92    1
   95    92    93    1
   96    92    94    1
   97    94    95    1
   98    66    96    1
   99    92    96    1
  100    96    97    1
  101    96    98    1
  102    98    99    1
  103    85   100    1
  104    98   100    1
  105    98   101    1
  106   101   102    1
  107   101   103    1
  108   101   104    1
  109   104   105    1
  110   106   107    1
  111    12   108    1
  112   106   108    1
  113   106   109    1
  114   109   110    1
  115   109   111    1
  116   111   112    1
  117   109   113    1
  118   113   114    1
  119   113   115    1
  120   115   116    1
  121    87   117    1
  122   113   117    1
  123   117   118    1
  124   117   119    1
  125   119   120    1
  126   106   121    1
  127   119   121    1
  128   119   122    1
  129   122   123    1
  130   122   124    1
  131   122   125    1
  132   125   126    1
  133   127   128    1
  134   127   129    1
  135   127   130    1
  136   130   131    1
  137   130   132    1
  138   130   133    1
  139   133   134    1
  140   133   135    1
  141   133   136    1
  142   136   137    1
  143   136   138    1
  144   136   139    1
  145   139   140    1
  146   139   141    1
  147   141   142    1
  148   141   143    1
  149   141   144    1
  150   144   145    1
  151   144   146    1
  152   127   147    1
  153   144   147    1
  154   147   148    1
  155   147   149    1
  156   139   150    1
  157   150   151    1
@<TRIPOS>SUBSTRUCTURE
       1 MOL1            1 RESIDUE      1      MOL     
       2 MOL1          151 RESIDUE      1      MOL     
@<SCITEGIC>MOL_PROPERTY
VM2 Rank
SciTegic.value.IntegerValue
1

@<SCITEGIC>MOL_PROPERTY
Conf_Id
SciTegic.value.IntegerValue
27925

@<SCITEGIC>MOL_PROPERTY
Probability
SciTegic.value.DoubleValue
2.06

@<SCITEGIC>MOL_PROPERTY
Sum Probability
SciTegic.value.DoubleValue
2.06

@<SCITEGIC>MOL_PROPERTY
Delta G
SciTegic.value.DoubleValue
0.000

@<SCITEGIC>MOL_PROPERTY
G
SciTegic.value.DoubleValue
580.659

@<SCITEGIC>MOL_PROPERTY
E
SciTegic.value.DoubleValue
379.028

@<SCITEGIC>MOL_PROPERTY
-TS
SciTegic.value.DoubleValue
201.631

@<SCITEGIC>MOL_PROPERTY
U+W
SciTegic.value.DoubleValue
245.786

@<SCITEGIC>MOL_PROPERTY
U
SciTegic.value.DoubleValue
283.468

@<SCITEGIC>MOL_PROPERTY
W
SciTegic.value.DoubleValue
-37.682

@<SCITEGIC>MOL_PROPERTY
W(PB)
SciTegic.value.DoubleValue
-43.900

@<SCITEGIC>MOL_PROPERTY
W(SA)
SciTegic.value.DoubleValue
6.218

@<SCITEGIC>MOL_PROPERTY
Valence
SciTegic.value.DoubleValue
158.198

@<SCITEGIC>MOL_PROPERTY
Coulomb
SciTegic.value.DoubleValue
148.876

@<SCITEGIC>MOL_PROPERTY
VdW
SciTegic.value.DoubleValue
-23.606

@<SCITEGIC>MOL_PROPERTY
VdW6
SciTegic.value.DoubleValue
-178.486

@<SCITEGIC>MOL_PROPERTY
VdW12
SciTegic.value.DoubleValue
154.880

@<SCITEGIC>MOL_PROPERTY
Bond
SciTegic.value.DoubleValue
4.507

@<SCITEGIC>MOL_PROPERTY
Angle
SciTegic.value.DoubleValue
13.683

@<SCITEGIC>MOL_PROPERTY
Pdih
SciTegic.value.DoubleValue
140.008

@<SCITEGIC>MOL_PROPERTY
Idih
SciTegic.value.DoubleValue
0.000

@<SCITEGIC>MOL_PROPERTY
Tether
SciTegic.value.DoubleValue
0.000

@<TRIPOS>MOLECULE
CD_guest-s17_vm2_single.mol2 : vm2 host+ligand conformer 2
         151         157           2
SMALL
USER_CHARGES
 
@<TRIPOS>ATOM
       1    C1      16.228145   15.106308   21.681057 C.3        1 MOL1         0.2972
       2    H1      15.149196   14.911408   21.720039 H          1 MOL1         0.0751
       3    O1      16.517973   16.518416   21.695395 O.3        1 MOL1        -0.3740
       4    C2      16.926466   14.449706   22.897707 C.3        1 MOL1         0.1003
       5    H2      16.715207   13.373390   22.853332 H          1 MOL1         0.0783
       6    O2      16.426641   14.977369   24.134454 O.3        1 MOL1        -0.5519
       7    H3      17.030375   14.612189   24.819349 H          1 MOL1         0.3769
       8    C3      18.459662   14.634703   22.831419 C.3        1 MOL1         0.1053
       9    H4      18.685792   15.698410   22.978229 H          1 MOL1         0.0783
      10    O3      19.072857   13.849225   23.860956 O.3        1 MOL1        -0.5519
      11    H5      20.046103   13.874914   23.697218 H          1 MOL1         0.3769
      12    C4      19.028728   14.216549   21.455920 C.3        1 MOL1         0.1018
      13    H6      19.037750   13.119820   21.403866 H          1 MOL1         0.0783
      14    C5      18.207340   14.795347   20.271246 C.3        1 MOL1         0.1043
      15    H7      18.383999   15.878403   20.220224 H          1 MOL1         0.0783
      16    O4      16.797589   14.536954   20.483025 O.3        1 MOL1        -0.3740
      17    C6      18.589539   14.185904   18.903872 C.3        1 MOL1         0.0138
      18    H8      19.628564   14.450229   18.668949 H          1 MOL1         0.0794
      19    H9      17.955741   14.635516   18.127932 H          1 MOL1         0.0794
      20    O5      18.431085   12.763916   18.910706 O.3        1 MOL1        -0.5486
      21    H10     17.495414   12.594373   19.160328 H          1 MOL1         0.3769
      22    C7      14.801936   20.269496   21.271037 C.3        1 MOL1         0.2972
      23    H11     14.102708   21.105212   21.142090 H          1 MOL1         0.0751
      24    O6      16.174517   20.717480   21.252804 O.3        1 MOL1        -0.3740
      25    C8      14.513738   19.562585   22.618954 C.3        1 MOL1         0.1003
      26    H12     13.470461   19.221965   22.594065 H          1 MOL1         0.0783
      27    O7      14.691650   20.463361   23.721149 O.3        1 MOL1        -0.5519
      28    H13     14.644948   19.891393   24.519475 H          1 MOL1         0.3769
      29    C9      15.413670   18.321638   22.804831 C.3        1 MOL1         0.1053
      30    H14     16.439762   18.676155   22.939892 H          1 MOL1         0.0783
      31    O8      14.994223   17.590173   23.962985 O.3        1 MOL1        -0.5519
      32    H15     15.550368   16.772593   24.003502 H          1 MOL1         0.3769
      33    C10     15.385121   17.398372   21.563681 C.3        1 MOL1         0.1018
      34    H16     14.432033   16.853410   21.553007 H          1 MOL1         0.0783
      35    C11     15.545533   18.180233   20.232252 C.3        1 MOL1         0.1043
      36    H17     16.581651   18.536810   20.158741 H          1 MOL1         0.0783
      37    O9      14.631818   19.304802   20.212436 O.3        1 MOL1        -0.3740
      38    C12     15.247403   17.322218   18.982734 C.3        1 MOL1         0.0138
      39    H18     15.957051   16.486234   18.940842 H          1 MOL1         0.0794
      40    H19     15.410895   17.935857   18.086846 H          1 MOL1         0.0794
      41    O10     13.904377   16.829651   19.006224 O.3        1 MOL1        -0.5486
      42    H20     13.327274   17.619327   19.106391 H          1 MOL1         0.3769
      43    C13     18.547174   23.998984   20.386564 C.3        1 MOL1         0.2972
      44    H21     18.986855   24.942816   20.039722 H          1 MOL1         0.0751
      45    O11     19.561212   23.092128   20.864984 O.3        1 MOL1        -0.3740
      46    C14     17.478723   24.249546   21.488130 C.3        1 MOL1         0.1003
      47    H22     16.677401   24.844610   21.031843 H          1 MOL1         0.0783
      48    O12     18.029238   24.987337   22.589965 O.3        1 MOL1        -0.5519
      49    H23     18.611850   24.359657   23.085513 H          1 MOL1         0.3769
      50    C15     16.862954   22.905539   21.957123 C.3        1 MOL1         0.1053
      51    H24     17.651241   22.343557   22.470159 H          1 MOL1         0.0783
      52    O13     15.762484   23.127290   22.848360 O.3        1 MOL1        -0.5519
      53    H25     15.473991   22.238596   23.172291 H          1 MOL1         0.3769
      54    C16     16.369175   22.059118   20.756496 C.3        1 MOL1         0.1018
      55    H26     15.435848   22.498995   20.380676 H          1 MOL1         0.0783
      56    C17     17.387031   21.998307   19.585482 C.3        1 MOL1         0.1043
      57    H27     18.219451   21.343086   19.875421 H          1 MOL1         0.0783
      58    O14     17.879839   23.332399   19.294518 O.3        1 MOL1        -0.3740
      59    C18     16.775211   21.434831   18.283648 C.3        1 MOL1         0.0138
      60    H28     16.408336   20.417377   18.469121 H          1 MOL1         0.0794
      61    H29     17.565619   21.365855   17.524489 H          1 MOL1         0.0794
      62    O15     15.708933   22.265296   17.813982 O.3        1 MOL1        -0.5486
      63    H30     16.082322   23.172022   17.742899 H          1 MOL1         0.3769
      64    C19     23.368766   22.696315   22.346561 C.3        1 MOL1         0.2972
      65    H31     24.370817   22.805588   22.781038 H          1 MOL1         0.0751
      66    O16     23.189326   21.401384   21.739669 O.3        1 MOL1        -0.3740
      67    C20     22.287207   22.893826   23.437543 C.3        1 MOL1         0.1003
      68    H32     22.406407   23.912641   23.828513 H          1 MOL1         0.0783
      69    O17     22.443967   21.956259   24.515340 O.3        1 MOL1        -0.5519
      70    H33     23.286559   21.466582   24.354722 H          1 MOL1         0.3769
      71    C21     20.868289   22.774615   22.837082 C.3        1 MOL1         0.1053
      72    H34     20.710744   21.724828   22.551697 H          1 MOL1         0.0783
      73    O18     19.917120   23.158187   23.835883 O.3        1 MOL1        -0.5519
      74    H35     20.198345   22.670595   24.641804 H          1 MOL1         0.3769
      75    C22     20.688434   23.647995   21.568242 C.3        1 MOL1         0.1018
      76    H36     20.516719   24.688544   21.872425 H          1 MOL1         0.0783
      77    C23     21.902388   23.575541   20.598895 C.3        1 MOL1         0.1043
      78    H37     21.872769   22.604342   20.087892 H          1 MOL1         0.0783
      79    O19     23.145557   23.699417   21.333836 O.3        1 MOL1        -0.3740
      80    C24     21.886685   24.670779   19.509545 C.3        1 MOL1         0.0138
      81    H38     21.009948   24.522453   18.865460 H          1 MOL1         0.0794
      82    H39     22.778255   24.553127   18.879001 H          1 MOL1         0.0794
      83    O20     21.857961   25.978348   20.088773 O.3        1 MOL1        -0.5486
      84    H40     22.644062   26.036175   20.676481 H          1 MOL1         0.3769
      85    C25     25.116376   17.751828   21.375370 C.3        1 MOL1         0.2972
      86    H41     25.837161   16.938911   21.220989 H          1 MOL1         0.0751
      87    O21     23.771056   17.255256   21.518442 O.3        1 MOL1        -0.3740
      88    C26     25.476350   18.538452   22.659343 C.3        1 MOL1         0.1003
      89    H42     26.486302   18.946229   22.522298 H          1 MOL1         0.0783
      90    O22     25.468918   17.672788   23.805989 O.3        1 MOL1        -0.5519
      91    H43     24.853201   16.924679   23.603275 H          1 MOL1         0.3769
      92    C27     24.509192   19.727061   22.874098 C.3        1 MOL1         0.1053
      93    H44     23.517764   19.319578   23.101511 H          1 MOL1         0.0783
      94    O23     24.971470   20.510531   23.979126 O.3        1 MOL1        -0.5519
      95    H45     25.251624   19.850058   24.653166 H          1 MOL1         0.3769
      96    C28     24.376094   20.598590   21.597285 C.3        1 MOL1         0.1018
      97    H46     25.272952   21.220110   21.473681 H          1 MOL1         0.0783
      98    C29     24.172250   19.744744   20.317040 C.3        1 MOL1         0.1043
      99    H47     23.157844   19.323941   20.338793 H          1 MOL1         0.0783
     100    O24     25.148362   18.675023   20.268651 O.3        1 MOL1        -0.3740
     101    C30     24.317676   20.566033   19.016543 C.3        1 MOL1         0.0138
     102    H48     23.578634   21.377631   19.018778 H          1 MOL1         0.0794
     103    H49     24.090789   19.915581   18.161379 H          1 MOL1         0.0794
     104    O25     25.637883   21.102706   18.892537 O.3        1 MOL1        -0.5486
     105    H50     26.250323   20.339102   18.986306 H          1 MOL1         0.3769
     106    C31     21.395639   13.897989   20.912383 C.3        1 MOL1         0.2972
     107    H51     21.000486   12.914662   20.627187 H          1 MOL1         0.0751
     108    O26     20.355181   14.773581   21.389064 O.3        1 MOL1        -0.3740
     109    C32     22.463853   13.758338   22.030657 C.3        1 MOL1         0.1003
     110    H52     23.275838   13.131903   21.638527 H          1 MOL1         0.0783
     111    O27     21.912336   13.147041   23.210460 O.3        1 MOL1        -0.5519
     112    H53     21.765677   12.198211   23.010354 H          1 MOL1         0.3769
     113    C33     23.056424   15.142798   22.384275 C.3        1 MOL1         0.1053
     114    H54     22.256022   15.741213   22.833421 H          1 MOL1         0.0783
     115    O28     24.126365   14.986919   23.321763 O.3        1 MOL1        -0.5519
     116    H55     23.773173   14.375343   24.005664 H          1 MOL1         0.3769
     117    C34     23.558174   15.886221   21.123373 C.3        1 MOL1         0.1018
     118    H56     24.481731   15.406865   20.773148 H          1 MOL1         0.0783
     119    C35     22.509516   15.874470   19.978380 C.3        1 MOL1         0.1043
     120    H57     21.676327   16.533431   20.257092 H          1 MOL1         0.0783
     121    O29     22.024945   14.523948   19.775062 O.3        1 MOL1        -0.3740
     122    C36     23.076850   16.363999   18.627485 C.3        1 MOL1         0.0138
     123    H58     23.422599   17.399444   18.733758 H          1 MOL1         0.0794
     124    H59     22.267728   16.363402   17.885090 H          1 MOL1         0.0794
     125    O30     24.151408   15.527837   18.188206 O.3        1 MOL1        -0.5486
     126    H60     23.797030   14.610847   18.183192 H          1 MOL1         0.3769
     127    C1      19.276483   17.048499   25.714511 C.3        1 MOL1        -0.1684
     128    H1      18.518297   16.810409   24.962053 H          1 MOL1         0.0833
     129    H2      19.126773   16.295136   26.499605 H          1 MOL1         0.0833
     130    C2      20.704528   16.839012   25.148630 C.3        1 MOL1        -0.1684
     131    H3      21.376854   16.660641   25.998570 H          1 MOL1         0.0833
     132    H4      20.722610   15.912813   24.562222 H          1 MOL1         0.0833
     133    C3      21.317577   17.989233   24.311622 C.3        1 MOL1        -0.1684
     134    H5      22.350860   17.700470   24.083537 H          1 MOL1         0.0833
     135    H6      21.414530   18.894618   24.921743 H          1 MOL1         0.0833
     136    C4      20.614911   18.316192   22.966665 C.3        1 MOL1        -0.1760
     137    H7      21.220247   19.071399   22.448287 H          1 MOL1         0.0833
     138    H8      20.629862   17.427092   22.325390 H          1 MOL1         0.0833
     139    C5      19.159769   18.836704   23.039687 C.3        1 MOL1         0.1219
     140    H9      18.492406   17.986241   23.215477 H          1 MOL1         0.0790
     141    C6      18.913922   19.907740   24.134021 C.3        1 MOL1        -0.1760
     142    H10     19.853286   20.400749   24.406957 H          1 MOL1         0.0833
     143    H11     18.283879   20.700151   23.717279 H          1 MOL1         0.0833
     144    C7      18.193527   19.397423   25.409088 C.3        1 MOL1        -0.1684
     145    H12     17.247001   18.916090   25.132446 H          1 MOL1         0.0833
     146    H13     17.912275   20.275525   26.005923 H          1 MOL1         0.0833
     147    C8      19.004667   18.445977   26.324558 C.3        1 MOL1        -0.1684
     148    H14     18.416099   18.299968   27.240332 H          1 MOL1         0.0833
     149    H15     19.936986   18.922862   26.653041 H          1 MOL1         0.0833
     150    O1      18.838483   19.397802   21.768574 O.3        1 MOL1        -0.5508
     151    H16     17.940985   19.786529   21.836425 H          1 MOL1         0.3780
@<TRIPOS>BOND
    1     1     2    1
    2     1     3    1
    3     1     4    1
    4     4     5    1
    5     4     6    1
    6     6     7    1
    7     4     8    1
    8     8     9    1
    9     8    10    1
   10    10    11    1
   11     8    12    1
   12    12    13    1
   13    12    14    1
   14    14    15    1
   15     1    16    1
   16    14    16    1
   17    14    17    1
   18    17    18    1
   19    17    19    1
   20    17    20    1
   21    20    21    1
   22    22    23    1
   23    22    24    1
   24    22    25    1
   25    25    26    1
   26    25    27    1
   27    27    28    1
   28    25    29    1
   29    29    30    1
   30    29    31    1
   31    31    32    1
   32     3    33    1
   33    29    33    1
   34    33    34    1
   35    33    35    1
   36    35    36    1
   37    22    37    1
   38    35    37    1
   39    35    38    1
   40    38    39    1
   41    38    40    1
   42    38    41    1
   43    41    42    1
   44    43    44    1
   45    43    45    1
   46    43    46    1
   47    46    47    1
   48    46    48    1
   49    48    49    1
   50    46    50    1
   51    50    51    1
   52    50    52    1
   53    52    53    1
   54    24    54    1
   55    50    54    1
   56    54    55    1
   57    54    56    1
   58    56    57    1
   59    43    58    1
   60    56    58    1
   61    56    59    1
   62    59    60    1
   63    59    61    1
   64    59    62    1
   65    62    63    1
   66    64    65    1
   67    64    66    1
   68    64    67    1
   69    67    68    1
   70    67    69    1
   71    69    70    1
   72    67    71    1
   73    71    72    1
   74    71    73    1
   75    73    74    1
   76    45    75    1
   77    71    75    1
   78    75    76    1
   79    75    77    1
   80    77    78    1
   81    64    79    1
   82    77    79    1
   83    77    80    1
   84    80    81    1
   85    80    82    1
   86    80    83    1
   87    83    84    1
   88    85    86    1
   89    85    87    1
   90    85    88    1
   91    88    89    1
   92    88    90    1
   93    90    91    1
   94    88    92    1
   95    92    93    1
   96    92    94    1
   97    94    95    1
   98    66    96    1
   99    92    96    1
  100    96    97    1
  101    96    98    1
  102    98    99    1
  103    85   100    1
  104    98   100    1
  105    98   101    1
  106   101   102    1
  107   101   103    1
  108   101   104    1
  109   104   105    1
  110   106   107    1
  111    12   108    1
  112   106   108    1
  113   106   109    1
  114   109   110    1
  115   109   111    1
  116   111   112    1
  117   109   113    1
  118   113   114    1
  119   113   115    1
  120   115   116    1
  121    87   117    1
  122   113   117    1
  123   117   118    1
  124   117   119    1
  125   119   120    1
  126   106   121    1
  127   119   121    1
  128   119   122    1
  129   122   123    1
  130   122   124    1
  131   122   125    1
  132   125   126    1
  133   127   128    1
  134   127   129    1
  135   127   130    1
  136   130   131    1
  137   130   132    1
  138   130   133    1
  139   133   134    1
  140   133   135    1
  141   133   136    1
  142   136   137    1
  143   136   138    1
  144   136   139    1
  145   139   140    1
  146   139   141    1
  147   141   142    1
  148   141   143    1
  149   141   144    1
  150   144   145    1
  151   144   146    1
  152   127   147    1
  153   144   147    1
  154   147   148    1
  155   147   149    1
  156   139   150    1
  157   150   151    1
@<TRIPOS>SUBSTRUCTURE
       1 MOL1            1 RESIDUE      1      MOL     
       2 MOL1          151 RESIDUE      1      MOL     
@<SCITEGIC>MOL_PROPERTY
VM2 Rank
SciTegic.value.IntegerValue
2

@<SCITEGIC>MOL_PROPERTY
Conf_Id
SciTegic.value.IntegerValue
27267

@<SCITEGIC>MOL_PROPERTY
Probability
SciTegic.value.DoubleValue
2.04

@<SCITEGIC>MOL_PROPERTY
Sum Probability
SciTegic.value.DoubleValue
4.10

@<SCITEGIC>MOL_PROPERTY
Delta G
SciTegic.value.DoubleValue
0.007

@<SCITEGIC>MOL_PROPERTY
G
SciTegic.value.DoubleValue
580.666

@<SCITEGIC>MOL_PROPERTY
E
SciTegic.value.DoubleValue
378.231

@<SCITEGIC>MOL_PROPERTY
-TS
SciTegic.value.DoubleValue
202.434

@<SCITEGIC>MOL_PROPERTY
U+W
SciTegic.value.DoubleValue
244.989

@<SCITEGIC>MOL_PROPERTY
U
SciTegic.value.DoubleValue
282.206

@<SCITEGIC>MOL_PROPERTY
W
SciTegic.value.DoubleValue
-37.217

@<SCITEGIC>MOL_PROPERTY
W(PB)
SciTegic.value.DoubleValue
-43.485

@<SCITEGIC>MOL_PROPERTY
W(SA)
SciTegic.value.DoubleValue
6.268

@<SCITEGIC>MOL_PROPERTY
Valence
SciTegic.value.DoubleValue
160.427

@<SCITEGIC>MOL_PROPERTY
Coulomb
SciTegic.value.DoubleValue
147.683

@<SCITEGIC>MOL_PROPERTY
VdW
SciTegic.value.DoubleValue
-25.903

@<SCITEGIC>MOL_PROPERTY
VdW6
SciTegic.value.DoubleValue
-183.583

@<SCITEGIC>MOL_PROPERTY
VdW12
SciTegic.value.DoubleValue
157.680

@<SCITEGIC>MOL_PROPERTY
Bond
SciTegic.value.DoubleValue
4.450

@<SCITEGIC>MOL_PROPERTY
Angle
SciTegic.value.DoubleValue
13.872

@<SCITEGIC>MOL_PROPERTY
Pdih
SciTegic.value.DoubleValue
142.104

@<SCITEGIC>MOL_PROPERTY
Idih
SciTegic.value.DoubleValue
0.000

@<SCITEGIC>MOL_PROPERTY
Tether
SciTegic.value.DoubleValue
0.000

@<TRIPOS>MOLECULE
CD_guest-s17_vm2_single.mol2 : vm2 host+ligand conformer 3
         151         157           2
SMALL
USER_CHARGES
 
@<TRIPOS>ATOM
       1    C1      16.611347   15.599404   20.575842 C.3        1 MOL1         0.2972
       2    H1      15.620397   15.421261   20.139355 H          1 MOL1         0.0751
       3    O1      16.762429   16.972789   20.990235 O.3        1 MOL1        -0.3740
       4    C2      16.816145   14.646247   21.784435 C.3        1 MOL1         0.1003
       5    H2      16.689906   13.621796   21.410673 H          1 MOL1         0.0783
       6    O2      15.848856   14.885854   22.814854 O.3        1 MOL1        -0.5519
       7    H3      16.178418   14.372328   23.586366 H          1 MOL1         0.3769
       8    C3      18.242773   14.756753   22.365209 C.3        1 MOL1         0.1053
       9    H4      18.349405   15.752664   22.809542 H          1 MOL1         0.0783
      10    O3      18.429242   13.750861   23.369405 O.3        1 MOL1        -0.5519
      11    H5      19.307965   13.924180   23.790164 H          1 MOL1         0.3769
      12    C4      19.299353   14.604996   21.243117 C.3        1 MOL1         0.1018
      13    H6      19.288776   13.571590   20.871097 H          1 MOL1         0.0783
      14    C5      19.002869   15.553200   20.051285 C.3        1 MOL1         0.1043
      15    H7      19.131963   16.591413   20.385711 H          1 MOL1         0.0783
      16    O4      17.641338   15.334503   19.600848 O.3        1 MOL1        -0.3740
      17    C6      19.926149   15.318674   18.834681 C.3        1 MOL1         0.0138
      18    H8      20.966235   15.500416   19.128532 H          1 MOL1         0.0794
      19    H9      19.673421   16.049563   18.054944 H          1 MOL1         0.0794
      20    O5      19.785114   13.988382   18.328920 O.3        1 MOL1        -0.5486
      21    H10     18.825112   13.862132   18.159582 H          1 MOL1         0.3769
      22    C7      14.626801   20.565617   20.858178 C.3        1 MOL1         0.2972
      23    H11     13.933050   21.376817   20.604400 H          1 MOL1         0.0751
      24    O6      15.544781   20.967258   21.892835 O.3        1 MOL1        -0.3740
      25    C8      13.828703   19.325814   21.336746 C.3        1 MOL1         0.1003
      26    H12     13.196934   19.004909   20.498300 H          1 MOL1         0.0783
      27    O7      12.988240   19.632547   22.455823 O.3        1 MOL1        -0.5519
      28    H13     12.728933   18.756131   22.818520 H          1 MOL1         0.3769
      29    C9      14.775255   18.154390   21.684148 C.3        1 MOL1         0.1053
      30    H14     15.371073   18.437702   22.562925 H          1 MOL1         0.0783
      31    O8      13.994110   16.988847   21.975349 O.3        1 MOL1        -0.5519
      32    H15     14.624917   16.309517   22.323012 H          1 MOL1         0.3769
      33    C10     15.740302   17.867760   20.505177 C.3        1 MOL1         0.1018
      34    H16     15.171651   17.422500   19.677725 H          1 MOL1         0.0783
      35    C11     16.424167   19.154904   19.970886 C.3        1 MOL1         0.1043
      36    H17     17.140536   19.524101   20.711978 H          1 MOL1         0.0783
      37    O9      15.403931   20.153431   19.708320 O.3        1 MOL1        -0.3740
      38    C12     17.192397   18.906292   18.656765 C.3        1 MOL1         0.0138
      39    H18     16.487651   18.591891   17.875449 H          1 MOL1         0.0794
      40    H19     17.909259   18.088900   18.807892 H          1 MOL1         0.0794
      41    O10     17.885108   20.093121   18.263548 O.3        1 MOL1        -0.5486
      42    H20     17.195953   20.781894   18.151265 H          1 MOL1         0.3769
      43    C13     18.301130   24.047643   22.113251 C.3        1 MOL1         0.2972
      44    H21     18.852242   24.990314   22.223161 H          1 MOL1         0.0751
      45    O11     19.171165   22.961660   21.726802 O.3        1 MOL1        -0.3740
      46    C14     17.584068   23.701005   23.437454 C.3        1 MOL1         0.1003
      47    H22     16.861681   24.500668   23.646591 H          1 MOL1         0.0783
      48    O12     18.514895   23.604846   24.524272 O.3        1 MOL1        -0.5519
      49    H23     18.001404   23.184133   25.250167 H          1 MOL1         0.3769
      50    C15     16.805897   22.379343   23.289630 C.3        1 MOL1         0.1053
      51    H24     17.549464   21.591212   23.139716 H          1 MOL1         0.0783
      52    O13     16.071368   22.111151   24.488687 O.3        1 MOL1        -0.5519
      53    H25     15.892463   21.139394   24.473432 H          1 MOL1         0.3769
      54    C16     15.860790   22.370532   22.057037 C.3        1 MOL1         0.1018
      55    H26     14.956651   22.942399   22.301687 H          1 MOL1         0.0783
      56    C17     16.540316   22.971874   20.777071 C.3        1 MOL1         0.1043
      57    H27     17.226528   22.220621   20.365750 H          1 MOL1         0.0783
      58    O14     17.278574   24.175606   21.110652 O.3        1 MOL1        -0.3740
      59    C18     15.568304   23.412732   19.653658 C.3        1 MOL1         0.0138
      60    H28     15.112086   22.541516   19.173498 H          1 MOL1         0.0794
      61    H29     16.150151   23.925547   18.875652 H          1 MOL1         0.0794
      62    O15     14.553024   24.285043   20.157302 O.3        1 MOL1        -0.5486
      63    H30     15.021917   25.054254   20.550779 H          1 MOL1         0.3769
      64    C19     23.210084   22.332071   20.833084 C.3        1 MOL1         0.2972
      65    H31     24.241144   22.479212   20.487145 H          1 MOL1         0.0751
      66    O16     22.981052   20.965595   21.237571 O.3        1 MOL1        -0.3740
      67    C20     22.923649   23.286578   22.021243 C.3        1 MOL1         0.1003
      68    H32     23.086711   24.310713   21.661035 H          1 MOL1         0.0783
      69    O17     23.805782   23.033928   23.123018 O.3        1 MOL1        -0.5519
      70    H33     23.423477   23.550815   23.867777 H          1 MOL1         0.3769
      71    C21     21.454879   23.181253   22.486230 C.3        1 MOL1         0.1053
      72    H34     21.307852   22.180524   22.911254 H          1 MOL1         0.0783
      73    O18     21.201960   24.177545   23.484697 O.3        1 MOL1        -0.5519
      74    H35     20.318273   23.965526   23.876773 H          1 MOL1         0.3769
      75    C22     20.486257   23.353609   21.287545 C.3        1 MOL1         0.1018
      76    H36     20.503320   24.398032   20.948274 H          1 MOL1         0.0783
      77    C23     20.877981   22.442630   20.093726 C.3        1 MOL1         0.1043
      78    H37     20.697599   21.397652   20.375835 H          1 MOL1         0.0783
      79    O19     22.278896   22.639203   19.774911 O.3        1 MOL1        -0.3740
      80    C24     20.067094   22.738164   18.812497 C.3        1 MOL1         0.0138
      81    H38     19.000395   22.588637   19.019059 H          1 MOL1         0.0794
      82    H39     20.354964   22.014204   18.038179 H          1 MOL1         0.0794
      83    O20     20.297001   24.074130   18.354950 O.3        1 MOL1        -0.5486
      84    H40     21.271791   24.164971   18.266204 H          1 MOL1         0.3769
      85    C25     25.118532   17.335125   21.234075 C.3        1 MOL1         0.2972
      86    H41     25.841459   16.553501   20.968970 H          1 MOL1         0.0751
      87    O21     24.205035   16.865324   22.244237 O.3        1 MOL1        -0.3740
      88    C26     25.878840   18.585552   21.750958 C.3        1 MOL1         0.1003
      89    H42     26.552038   18.906351   20.945256 H          1 MOL1         0.0783
      90    O22     26.661003   18.285567   22.913733 O.3        1 MOL1        -0.5519
      91    H43     26.943897   19.162962   23.256388 H          1 MOL1         0.3769
      92    C27     24.917680   19.759410   22.048204 C.3        1 MOL1         0.1053
      93    H44     24.284427   19.478556   22.900962 H          1 MOL1         0.0783
      94    O23     25.687148   20.924720   22.369475 O.3        1 MOL1        -0.5519
      95    H45     25.043852   21.613392   22.672753 H          1 MOL1         0.3769
      96    C28     24.003218   20.034895   20.827532 C.3        1 MOL1         0.1018
      97    H46     24.606506   20.437216   20.002546 H          1 MOL1         0.0783
      98    C29     23.315143   18.736089   20.335790 C.3        1 MOL1         0.1043
      99    H47     22.619768   18.386883   21.110521 H          1 MOL1         0.0783
     100    O24     24.335755   17.736238   20.085296 O.3        1 MOL1        -0.3740
     101    C30     22.518944   18.924271   19.025012 C.3        1 MOL1         0.0138
     102    H48     21.738561   19.680306   19.180320 H          1 MOL1         0.0794
     103    H49     22.016726   17.979580   18.778638 H          1 MOL1         0.0794
     104    O25     23.380768   19.319008   17.954219 O.3        1 MOL1        -0.5486
     105    H50     24.114906   18.665918   17.941262 H          1 MOL1         0.3769
     106    C31     21.416230   13.821585   22.135821 C.3        1 MOL1         0.2972
     107    H51     20.841616   12.886805   22.158651 H          1 MOL1         0.0751
     108    O26     20.581574   14.953554   21.803242 O.3        1 MOL1        -0.3740
     109    C32     22.098106   14.041090   23.503090 C.3        1 MOL1         0.1003
     110    H52     22.795993   13.208642   23.661712 H          1 MOL1         0.0783
     111    O27     21.135031   14.055889   24.563833 O.3        1 MOL1        -0.5519
     112    H53     21.631143   14.389836   25.343848 H          1 MOL1         0.3769
     113    C33     22.913770   15.349433   23.495495 C.3        1 MOL1         0.1053
     114    H54     22.198834   16.178185   23.425352 H          1 MOL1         0.0783
     115    O28     23.659042   15.460487   24.712674 O.3        1 MOL1        -0.5519
     116    H55     24.182950   16.286728   24.627042 H          1 MOL1         0.3769
     117    C34     23.881955   15.451084   22.285387 C.3        1 MOL1         0.1018
     118    H56     24.780924   14.861572   22.506895 H          1 MOL1         0.0783
     119    C35     23.247134   14.942154   20.942425 C.3        1 MOL1         0.1043
     120    H57     22.598276   15.732794   20.547275 H          1 MOL1         0.0783
     121    O29     22.468312   13.739374   21.162468 O.3        1 MOL1        -0.3740
     122    C36     24.261339   14.539454   19.841023 C.3        1 MOL1         0.0138
     123    H58     24.775439   15.419612   19.443173 H          1 MOL1         0.0794
     124    H59     23.703019   14.102240   19.001951 H          1 MOL1         0.0794
     125    O30     25.215865   13.595908   20.335118 O.3        1 MOL1        -0.5486
     126    H60     24.697888   12.823527   20.653937 H          1 MOL1         0.3769
     127    C1      21.147118   19.120095   25.207628 C.3        1 MOL1        -0.1684
     128    H1      20.547121   19.929150   25.639558 H          1 MOL1         0.0833
     129    H2      22.181178   19.378219   25.473773 H          1 MOL1         0.0833
     130    C2      20.824593   17.769753   25.901769 C.3        1 MOL1        -0.1684
     131    H3      21.718448   17.136895   25.827624 H          1 MOL1         0.0833
     132    H4      20.678533   17.946712   26.975618 H          1 MOL1         0.0833
     133    C3      19.633281   16.946328   25.351671 C.3        1 MOL1        -0.1684
     134    H5      19.630534   15.981160   25.874939 H          1 MOL1         0.0833
     135    H6      19.808707   16.691648   24.301246 H          1 MOL1         0.0833
     136    C4      18.224580   17.567488   25.536024 C.3        1 MOL1        -0.1760
     137    H7      17.489305   16.840119   25.165583 H          1 MOL1         0.0833
     138    H8      18.026861   17.683672   26.609064 H          1 MOL1         0.0833
     139    C5      17.963597   18.920035   24.834464 C.3        1 MOL1         0.1219
     140    H9      18.469921   19.717709   25.389873 H          1 MOL1         0.0790
     141    C6      18.425878   18.958735   23.358180 C.3        1 MOL1        -0.1760
     142    H10     18.517430   17.949605   22.946462 H          1 MOL1         0.0833
     143    H11     17.633179   19.429217   22.771448 H          1 MOL1         0.0833
     144    C7      19.728954   19.760198   23.111205 C.3        1 MOL1        -0.1684
     145    H12     19.614558   20.771163   23.522412 H          1 MOL1         0.0833
     146    H13     19.844555   19.888620   22.027174 H          1 MOL1         0.0833
     147    C8      21.034726   19.133213   23.661005 C.3        1 MOL1        -0.1684
     148    H14     21.866015   19.739181   23.280851 H          1 MOL1         0.0833
     149    H15     21.188915   18.133994   23.239671 H          1 MOL1         0.0833
     150    O1      16.562924   19.175657   24.885974 O.3        1 MOL1        -0.5508
     151    H16     16.291576   19.037474   25.815264 H          1 MOL1         0.3780
@<TRIPOS>BOND
    1     1     2    1
    2     1     3    1
    3     1     4    1
    4     4     5    1
    5     4     6    1
    6     6     7    1
    7     4     8    1
    8     8     9    1
    9     8    10    1
   10    10    11    1
   11     8    12    1
   12    12    13    1
   13    12    14    1
   14    14    15    1
   15     1    16    1
   16    14    16    1
   17    14    17    1
   18    17    18    1
   19    17    19    1
   20    17    20    1
   21    20    21    1
   22    22    23    1
   23    22    24    1
   24    22    25    1
   25    25    26    1
   26    25    27    1
   27    27    28    1
   28    25    29    1
   29    29    30    1
   30    29    31    1
   31    31    32    1
   32     3    33    1
   33    29    33    1
   34    33    34    1
   35    33    35    1
   36    35    36    1
   37    22    37    1
   38    35    37    1
   39    35    38    1
   40    38    39    1
   41    38    40    1
   42    38    41    1
   43    41    42    1
   44    43    44    1
   45    43    45    1
   46    43    46    1
   47    46    47    1
   48    46    48    1
   49    48    49    1
   50    46    50    1
   51    50    51    1
   52    50    52    1
   53    52    53    1
   54    24    54    1
   55    50    54    1
   56    54    55    1
   57    54    56    1
   58    56    57    1
   59    43    58    1
   60    56    58    1
   61    56    59    1
   62    59    60    1
   63    59    61    1
   64    59    62    1
   65    62    63    1
   66    64    65    1
   67    64    66    1
   68    64    67    1
   69    67    68    1
   70    67    69    1
   71    69    70    1
   72    67    71    1
   73    71    72    1
   74    71    73    1
   75    73    74    1
   76    45    75    1
   77    71    75    1
   78    75    76    1
   79    75    77    1
   80    77    78    1
   81    64    79    1
   82    77    79    1
   83    77    80    1
   84    80    81    1
   85    80    82    1
   86    80    83    1
   87    83    84    1
   88    85    86    1
   89    85    87    1
   90    85    88    1
   91    88    89    1
   92    88    90    1
   93    90    91    1
   94    88    92    1
   95    92    93    1
   96    92    94    1
   97    94    95    1
   98    66    96    1
   99    92    96    1
  100    96    97    1
  101    96    98    1
  102    98    99    1
  103    85   100    1
  104    98   100    1
  105    98   101    1
  106   101   102    1
  107   101   103    1
  108   101   104    1
  109   104   105    1
  110   106   107    1
  111    12   108    1
  112   106   108    1
  113   106   109    1
  114   109   110    1
  115   109   111    1
  116   111   112    1
  117   109   113    1
  118   113   114    1
  119   113   115    1
  120   115   116    1
  121    87   117    1
  122   113   117    1
  123   117   118    1
  124   117   119    1
  125   119   120    1
  126   106   121    1
  127   119   121    1
  128   119   122    1
  129   122   123    1
  130   122   124    1
  131   122   125    1
  132   125   126    1
  133   127   128    1
  134   127   129    1
  135   127   130    1
  136   130   131    1
  137   130   132    1
  138   130   133    1
  139   133   134    1
  140   133   135    1
  141   133   136    1
  142   136   137    1
  143   136   138    1
  144   136   139    1
  145   139   140    1
  146   139   141    1
  147   141   142    1
  148   141   143    1
  149   141   144    1
  150   144   145    1
  151   144   146    1
  152   127   147    1
  153   144   147    1
  154   147   148    1
  155   147   149    1
  156   139   150    1
  157   150   151    1
@<TRIPOS>SUBSTRUCTURE
       1 MOL1            1 RESIDUE      1      MOL     
       2 MOL1          151 RESIDUE      1      MOL     
@<SCITEGIC>MOL_PROPERTY
VM2 Rank
SciTegic.value.IntegerValue
3

@<SCITEGIC>MOL_PROPERTY
Conf_Id
SciTegic.value.IntegerValue
27595

@<SCITEGIC>MOL_PROPERTY
Probability
SciTegic.value.DoubleValue
1.70

@<SCITEGIC>MOL_PROPERTY
Sum Probability
SciTegic.value.DoubleValue
5.81

@<SCITEGIC>MOL_PROPERTY
Delta G
SciTegic.value.DoubleValue
0.115

@<SCITEGIC>MOL_PROPERTY
G
SciTegic.value.DoubleValue
580.774

@<SCITEGIC>MOL_PROPERTY
E
SciTegic.value.DoubleValue
377.847

@<SCITEGIC>MOL_PROPERTY
-TS
SciTegic.value.DoubleValue
202.928

@<SCITEGIC>MOL_PROPERTY
U+W
SciTegic.value.DoubleValue
244.604

@<SCITEGIC>MOL_PROPERTY
U
SciTegic.value.DoubleValue
276.926

@<SCITEGIC>MOL_PROPERTY
W
SciTegic.value.DoubleValue
-32.322

@<SCITEGIC>MOL_PROPERTY
W(PB)
SciTegic.value.DoubleValue
-38.340

@<SCITEGIC>MOL_PROPERTY
W(SA)
SciTegic.value.DoubleValue
6.018

@<SCITEGIC>MOL_PROPERTY
Valence
SciTegic.value.DoubleValue
157.124

@<SCITEGIC>MOL_PROPERTY
Coulomb
SciTegic.value.DoubleValue
143.973

@<SCITEGIC>MOL_PROPERTY
VdW
SciTegic.value.DoubleValue
-24.170

@<SCITEGIC>MOL_PROPERTY
VdW6
SciTegic.value.DoubleValue
-182.532

@<SCITEGIC>MOL_PROPERTY
VdW12
SciTegic.value.DoubleValue
158.362

@<SCITEGIC>MOL_PROPERTY
Bond
SciTegic.value.DoubleValue
4.995

@<SCITEGIC>MOL_PROPERTY
Angle
SciTegic.value.DoubleValue
16.989

@<SCITEGIC>MOL_PROPERTY
Pdih
SciTegic.value.DoubleValue
135.140

@<SCITEGIC>MOL_PROPERTY
Idih
SciTegic.value.DoubleValue
0.000

@<SCITEGIC>MOL_PROPERTY
Tether
SciTegic.value.DoubleValue
0.000

@<TRIPOS>MOLECULE
CD_guest-s17_vm2_single.mol2 : vm2 host+ligand conformer 4
         151         157           2
SMALL
USER_CHARGES
 
@<TRIPOS>ATOM
       1    C1      16.213950   15.092742   21.324980 C.3        1 MOL1         0.2972
       2    H1      15.136433   14.955863   21.168460 H          1 MOL1         0.0751
       3    O1      16.578552   16.488653   21.307180 O.3        1 MOL1        -0.3740
       4    C2      16.623413   14.476819   22.685601 C.3        1 MOL1         0.1003
       5    H2      16.378165   13.407419   22.650130 H          1 MOL1         0.0783
       6    O2      15.900791   15.093320   23.761125 O.3        1 MOL1        -0.5519
       7    H3      16.346546   14.773322   24.576983 H          1 MOL1         0.3769
       8    C3      18.145772   14.607944   22.920610 C.3        1 MOL1         0.1053
       9    H4      18.367731   15.669670   23.061571 H          1 MOL1         0.0783
      10    O3      18.526012   13.880066   24.094340 O.3        1 MOL1        -0.5519
      11    H5      19.491159   14.051618   24.231476 H          1 MOL1         0.3769
      12    C4      18.966589   14.111136   21.704509 C.3        1 MOL1         0.1018
      13    H6      18.988657   13.013351   21.706293 H          1 MOL1         0.0783
      14    C5      18.404680   14.611634   20.346566 C.3        1 MOL1         0.1043
      15    H7      18.645463   15.678630   20.250262 H          1 MOL1         0.0783
      16    O4      16.967136   14.423841   20.292684 O.3        1 MOL1        -0.3740
      17    C6      19.017008   13.876722   19.133666 C.3        1 MOL1         0.0138
      18    H8      20.104647   14.025054   19.133672 H          1 MOL1         0.0794
      19    H9      18.623505   14.326769   18.212473 H          1 MOL1         0.0794
      20    O5      18.710442   12.479979   19.172651 O.3        1 MOL1        -0.5486
      21    H10     17.732250   12.418180   19.250963 H          1 MOL1         0.3769
      22    C7      15.048287   20.243960   20.385795 C.3        1 MOL1         0.2972
      23    H11     14.470717   21.081309   19.973061 H          1 MOL1         0.0751
      24    O6      16.232235   20.702324   21.067632 O.3        1 MOL1        -0.3740
      25    C8      14.188660   19.420632   21.382484 C.3        1 MOL1         0.1003
      26    H12     13.309267   19.056992   20.835959 H          1 MOL1         0.0783
      27    O7      13.754136   20.257321   22.467521 O.3        1 MOL1        -0.5519
      28    H13     14.564125   20.642444   22.886591 H          1 MOL1         0.3769
      29    C9      14.973627   18.183308   21.897887 C.3        1 MOL1         0.1053
      30    H14     15.779603   18.552998   22.541821 H          1 MOL1         0.0783
      31    O8      14.122491   17.306548   22.647293 O.3        1 MOL1        -0.5519
      32    H15     14.711506   16.629578   23.062234 H          1 MOL1         0.3769
      33    C10     15.608011   17.382969   20.729037 C.3        1 MOL1         0.1018
      34    H16     14.818296   16.838442   20.194034 H          1 MOL1         0.0783
      35    C11     16.350067   18.286464   19.712474 C.3        1 MOL1         0.1043
      36    H17     17.267070   18.674438   20.176722 H          1 MOL1         0.0783
      37    O9      15.469688   19.367169   19.321943 O.3        1 MOL1        -0.3740
      38    C12     16.730847   17.526575   18.424583 C.3        1 MOL1         0.0138
      39    H18     15.815602   17.207485   17.908180 H          1 MOL1         0.0794
      40    H19     17.295872   16.624166   18.684905 H          1 MOL1         0.0794
      41    O10     17.518910   18.364523   17.577236 O.3        1 MOL1        -0.5486
      42    H20     17.008735   19.197619   17.469235 H          1 MOL1         0.3769
      43    C13     18.325017   24.150398   21.953716 C.3        1 MOL1         0.2972
      44    H21     18.670964   25.171565   22.156881 H          1 MOL1         0.0751
      45    O11     19.423449   23.220511   21.845243 O.3        1 MOL1        -0.3740
      46    C14     17.390190   23.659936   23.089335 C.3        1 MOL1         0.1003
      47    H22     16.506103   24.310844   23.097873 H          1 MOL1         0.0783
      48    O12     18.054968   23.746177   24.363741 O.3        1 MOL1        -0.5519
      49    H23     17.974539   24.676869   24.664559 H          1 MOL1         0.3769
      50    C15     16.908709   22.215886   22.790770 C.3        1 MOL1         0.1053
      51    H24     17.781060   21.553508   22.814370 H          1 MOL1         0.0783
      52    O13     15.948936   21.793041   23.767517 O.3        1 MOL1        -0.5519
      53    H25     16.444526   21.722471   24.618682 H          1 MOL1         0.3769
      54    C16     16.286145   22.108395   21.377223 C.3        1 MOL1         0.1018
      55    H26     15.285355   22.559836   21.404802 H          1 MOL1         0.0783
      56    C17     17.156474   22.793637   20.283728 C.3        1 MOL1         0.1043
      57    H27     18.043932   22.170471   20.109779 H          1 MOL1         0.0783
      58    O14     17.569206   24.110559   20.725326 O.3        1 MOL1        -0.3740
      59    C18     16.433116   22.963193   18.928854 C.3        1 MOL1         0.0138
      60    H28     16.228825   21.972086   18.503413 H          1 MOL1         0.0794
      61    H29     17.105215   23.482806   18.232870 H          1 MOL1         0.0794
      62    O15     15.214171   23.696194   19.080913 O.3        1 MOL1        -0.5486
      63    H30     15.460436   24.559978   19.480548 H          1 MOL1         0.3769
      64    C19     23.516454   22.790559   21.568785 C.3        1 MOL1         0.2972
      65    H31     24.604115   22.919594   21.500340 H          1 MOL1         0.0751
      66    O16     23.129860   21.412290   21.380153 O.3        1 MOL1        -0.3740
      67    C20     23.011534   23.281336   22.948662 C.3        1 MOL1         0.1003
      68    H32     23.240113   24.352671   23.020211 H          1 MOL1         0.0783
      69    O17     23.663250   22.591325   24.022938 O.3        1 MOL1        -0.5519
      70    H33     23.139891   22.829868   24.820769 H          1 MOL1         0.3769
      71    C21     21.479706   23.115791   23.057879 C.3        1 MOL1         0.1053
      72    H34     21.255686   22.043136   23.047177 H          1 MOL1         0.0783
      73    O18     21.014551   23.693304   24.282519 O.3        1 MOL1        -0.5519
      74    H35     20.036223   23.567013   24.293066 H          1 MOL1         0.3769
      75    C22     20.753591   23.772211   21.856781 C.3        1 MOL1         0.1018
      76    H36     20.752136   24.861711   21.992635 H          1 MOL1         0.0783
      77    C23     21.407796   23.419458   20.491606 C.3        1 MOL1         0.1043
      78    H37     21.164114   22.375796   20.253180 H          1 MOL1         0.0783
      79    O19     22.847907   23.580777   20.563093 O.3        1 MOL1        -0.3740
      80    C24     20.896242   24.301632   19.331433 C.3        1 MOL1         0.0138
      81    H38     19.812883   24.161189   19.222610 H          1 MOL1         0.0794
      82    H39     21.367016   23.964756   18.398164 H          1 MOL1         0.0794
      83    O20     21.193402   25.681230   19.566339 O.3        1 MOL1        -0.5486
      84    H40     22.164278   25.729220   19.714276 H          1 MOL1         0.3769
      85    C25     24.751454   17.648909   20.650668 C.3        1 MOL1         0.2972
      86    H41     25.364721   16.809032   20.299331 H          1 MOL1         0.0751
      87    O21     23.532390   17.191423   21.268927 O.3        1 MOL1        -0.3740
      88    C26     25.537630   18.513733   21.670982 C.3        1 MOL1         0.1003
      89    H42     26.442623   18.875726   21.165968 H          1 MOL1         0.0783
      90    O22     25.912438   17.750840   22.826178 O.3        1 MOL1        -0.5519
      91    H43     26.296007   18.411261   23.446180 H          1 MOL1         0.3769
      92    C27     24.711799   19.745229   22.111526 C.3        1 MOL1         0.1053
      93    H44     23.856563   19.380354   22.691803 H          1 MOL1         0.0783
      94    O23     25.523383   20.597626   22.928369 O.3        1 MOL1        -0.5519
      95    H45     24.912097   21.260381   23.336644 H          1 MOL1         0.3769
      96    C28     24.160720   20.530129   20.893281 C.3        1 MOL1         0.1018
      97    H46     24.977567   21.084033   20.411688 H          1 MOL1         0.0783
      98    C29     23.502887   19.597094   19.841990 C.3        1 MOL1         0.1043
      99    H47     22.559219   19.214400   20.252282 H          1 MOL1         0.0783
     100    O24     24.392540   18.494318   19.537656 O.3        1 MOL1        -0.3740
     101    C30     23.185664   20.319279   18.513418 C.3        1 MOL1         0.0138
     102    H48     22.505794   21.157661   18.712632 H          1 MOL1         0.0794
     103    H49     22.661080   19.620111   17.848645 H          1 MOL1         0.0794
     104    O25     24.381516   20.794170   17.888030 O.3        1 MOL1        -0.5486
     105    H50     24.978501   20.016020   17.818875 H          1 MOL1         0.3769
     106    C31     21.367507   13.766020   22.054538 C.3        1 MOL1         0.2972
     107    H51     21.009225   12.748929   22.256959 H          1 MOL1         0.0751
     108    O26     20.278270   14.687404   21.850941 O.3        1 MOL1        -0.3740
     109    C32     22.225300   14.270941   23.240534 C.3        1 MOL1         0.1003
     110    H52     23.075658   13.584521   23.344427 H          1 MOL1         0.0783
     111    O27     21.471371   14.276641   24.461222 O.3        1 MOL1        -0.5519
     112    H53     22.036239   14.770738   25.096900 H          1 MOL1         0.3769
     113    C33     22.787965   15.684398   22.963128 C.3        1 MOL1         0.1053
     114    H54     21.951820   16.393170   22.981536 H          1 MOL1         0.0783
     115    O28     23.739900   16.022148   23.978881 O.3        1 MOL1        -0.5519
     116    H55     24.310038   16.736906   23.604988 H          1 MOL1         0.3769
     117    C34     23.463928   15.784240   21.573745 C.3        1 MOL1         0.1018
     118    H56     24.462252   15.331180   21.641492 H          1 MOL1         0.0783
     119    C35     22.641869   15.098431   20.444872 C.3        1 MOL1         0.1043
     120    H57     21.769481   15.727617   20.223368 H          1 MOL1         0.0783
     121    O29     22.199723   13.786986   20.875617 O.3        1 MOL1        -0.3740
     122    C36     23.429992   14.915108   19.128458 C.3        1 MOL1         0.0138
     123    H58     23.668683   15.902167   18.711239 H          1 MOL1         0.0794
     124    H59     22.786862   14.401898   18.401056 H          1 MOL1         0.0794
     125    O30     24.629777   14.166445   19.343687 O.3        1 MOL1        -0.5486
     126    H60     24.352005   13.309451   19.737422 H          1 MOL1         0.3769
     127    C1      20.814306   19.099299   23.210237 C.3        1 MOL1        -0.1684
     128    H1      20.351796   20.046044   22.915093 H          1 MOL1         0.0833
     129    H2      21.460716   18.837219   22.362873 H          1 MOL1         0.0833
     130    C2      21.736355   19.286032   24.444419 C.3        1 MOL1        -0.1684
     131    H3      22.493210   18.491579   24.417416 H          1 MOL1         0.0833
     132    H4      22.291217   20.226422   24.337377 H          1 MOL1         0.0833
     133    C3      21.082204   19.237015   25.847137 C.3        1 MOL1        -0.1684
     134    H5      21.892773   19.273946   26.587184 H          1 MOL1         0.0833
     135    H6      20.603633   18.264388   26.008470 H          1 MOL1         0.0833
     136    C4      20.099701   20.388335   26.181091 C.3        1 MOL1        -0.1760
     137    H7      19.796358   20.276017   27.230323 H          1 MOL1         0.0833
     138    H8      20.635636   21.344253   26.119676 H          1 MOL1         0.0833
     139    C5      18.822675   20.483199   25.316038 C.3        1 MOL1         0.1219
     140    H9      19.092706   20.916117   24.348112 H          1 MOL1         0.0790
     141    C6      18.096898   19.134899   25.080507 C.3        1 MOL1        -0.1760
     142    H10     18.362726   18.407876   25.856615 H          1 MOL1         0.0833
     143    H11     17.016509   19.294410   25.197378 H          1 MOL1         0.0833
     144    C7      18.311290   18.524827   23.671568 C.3        1 MOL1        -0.1684
     145    H12     18.008793   19.250380   22.905779 H          1 MOL1         0.0833
     146    H13     17.613386   17.684666   23.574897 H          1 MOL1         0.0833
     147    C8      19.732624   18.000236   23.345793 C.3        1 MOL1        -0.1684
     148    H14     19.670159   17.482938   22.378781 H          1 MOL1         0.0833
     149    H15     20.036424   17.231521   24.067860 H          1 MOL1         0.0833
     150    O1      17.918382   21.371955   25.963637 O.3        1 MOL1        -0.5508
     151    H16     18.202491   22.284366   25.722234 H          1 MOL1         0.3780
@<TRIPOS>BOND
    1     1     2    1
    2     1     3    1
    3     1     4    1
    4     4     5    1
    5     4     6    1
    6     6     7    1
    7     4     8    1
    8     8     9    1
    9     8    10    1
   10    10    11    1
   11     8    12    1
   12    12    13    1
   13    12    14    1
   14    14    15    1
   15     1    16    1
   16    14    16    1
   17    14    17    1
   18    17    18    1
   19    17    19    1
   20    17    20    1
   21    20    21    1
   22    22    23    1
   23    22    24    1
   24    22    25    1
   25    25    26    1
   26    25    27    1
   27    27    28    1
   28    25    29    1
   29    29    30    1
   30    29    31    1
   31    31    32    1
   32     3    33    1
   33    29    33    1
   34    33    34    1
   35    33    35    1
   36    35    36    1
   37    22    37    1
   38    35    37    1
   39    35    38    1
   40    38    39    1
   41    38    40    1
   42    38    41    1
   43    41    42    1
   44    43    44    1
   45    43    45    1
   46    43    46    1
   47    46    47    1
   48    46    48    1
   49    48    49    1
   50    46    50    1
   51    50    51    1
   52    50    52    1
   53    52    53    1
   54    24    54    1
   55    50    54    1
   56    54    55    1
   57    54    56    1
   58    56    57    1
   59    43    58    1
   60    56    58    1
   61    56    59    1
   62    59    60    1
   63    59    61    1
   64    59    62    1
   65    62    63    1
   66    64    65    1
   67    64    66    1
   68    64    67    1
   69    67    68    1
   70    67    69    1
   71    69    70    1
   72    67    71    1
   73    71    72    1
   74    71    73    1
   75    73    74    1
   76    45    75    1
   77    71    75    1
   78    75    76    1
   79    75    77    1
   80    77    78    1
   81    64    79    1
   82    77    79    1
   83    77    80    1
   84    80    81    1
   85    80    82    1
   86    80    83    1
   87    83    84    1
   88    85    86    1
   89    85    87    1
   90    85    88    1
   91    88    89    1
   92    88    90    1
   93    90    91    1
   94    88    92    1
   95    92    93    1
   96    92    94    1
   97    94    95    1
   98    66    96    1
   99    92    96    1
  100    96    97    1
  101    96    98    1
  102    98    99    1
  103    85   100    1
  104    98   100    1
  105    98   101    1
  106   101   102    1
  107   101   103    1
  108   101   104    1
  109   104   105    1
  110   106   107    1
  111    12   108    1
  112   106   108    1
  113   106   109    1
  114   109   110    1
  115   109   111    1
  116   111   112    1
  117   109   113    1
  118   113   114    1
  119   113   115    1
  120   115   116    1
  121    87   117    1
  122   113   117    1
  123   117   118    1
  124   117   119    1
  125   119   120    1
  126   106   121    1
  127   119   121    1
  128   119   122    1
  129   122   123    1
  130   122   124    1
  131   122   125    1
  132   125   126    1
  133   127   128    1
  134   127   129    1
  135   127   130    1
  136   130   131    1
  137   130   132    1
  138   130   133    1
  139   133   134    1
  140   133   135    1
  141   133   136    1
  142   136   137    1
  143   136   138    1
  144   136   139    1
  145   139   140    1
  146   139   141    1
  147   141   142    1
  148   141   143    1
  149   141   144    1
  150   144   145    1
  151   144   146    1
  152   127   147    1
  153   144   147    1
  154   147   148    1
  155   147   149    1
  156   139   150    1
  157   150   151    1
@<TRIPOS>SUBSTRUCTURE
       1 MOL1            1 RESIDUE      1      MOL     
       2 MOL1          151 RESIDUE      1      MOL     
@<SCITEGIC>MOL_PROPERTY
VM2 Rank
SciTegic.value.IntegerValue
4

@<SCITEGIC>MOL_PROPERTY
Conf_Id
SciTegic.value.IntegerValue
27371

@<SCITEGIC>MOL_PROPERTY
Probability
SciTegic.value.DoubleValue
1.61

@<SCITEGIC>MOL_PROPERTY
Sum Probability
SciTegic.value.DoubleValue
7.42

@<SCITEGIC>MOL_PROPERTY
Delta G
SciTegic.value.DoubleValue
0.148

@<SCITEGIC>MOL_PROPERTY
G
SciTegic.value.DoubleValue
580.807

@<SCITEGIC>MOL_PROPERTY
E
SciTegic.value.DoubleValue
377.396

@<SCITEGIC>MOL_PROPERTY
-TS
SciTegic.value.DoubleValue
203.411

@<SCITEGIC>MOL_PROPERTY
U+W
SciTegic.value.DoubleValue
244.154

@<SCITEGIC>MOL_PROPERTY
U
SciTegic.value.DoubleValue
281.528

@<SCITEGIC>MOL_PROPERTY
W
SciTegic.value.DoubleValue
-37.374

@<SCITEGIC>MOL_PROPERTY
W(PB)
SciTegic.value.DoubleValue
-43.579

@<SCITEGIC>MOL_PROPERTY
W(SA)
SciTegic.value.DoubleValue
6.205

@<SCITEGIC>MOL_PROPERTY
Valence
SciTegic.value.DoubleValue
159.399

@<SCITEGIC>MOL_PROPERTY
Coulomb
SciTegic.value.DoubleValue
145.569

@<SCITEGIC>MOL_PROPERTY
VdW
SciTegic.value.DoubleValue
-23.441

@<SCITEGIC>MOL_PROPERTY
VdW6
SciTegic.value.DoubleValue
-180.977

@<SCITEGIC>MOL_PROPERTY
VdW12
SciTegic.value.DoubleValue
157.536

@<SCITEGIC>MOL_PROPERTY
Bond
SciTegic.value.DoubleValue
4.571

@<SCITEGIC>MOL_PROPERTY
Angle
SciTegic.value.DoubleValue
13.601

@<SCITEGIC>MOL_PROPERTY
Pdih
SciTegic.value.DoubleValue
141.227

@<SCITEGIC>MOL_PROPERTY
Idih
SciTegic.value.DoubleValue
0.000

@<SCITEGIC>MOL_PROPERTY
Tether
SciTegic.value.DoubleValue
0.000

@<TRIPOS>MOLECULE
CD_guest-s17_vm2_single.mol2 : vm2 host+ligand conformer 5
         151         157           2
SMALL
USER_CHARGES
 
@<TRIPOS>ATOM
       1    C1      16.197381   15.112543   21.378610 C.3        1 MOL1         0.2972
       2    H1      15.114055   14.981654   21.261903 H          1 MOL1         0.0751
       3    O1      16.595122   16.482373   21.171044 O.3        1 MOL1        -0.3740
       4    C2      16.641609   14.664588   22.793861 C.3        1 MOL1         0.1003
       5    H2      16.408191   13.596316   22.890648 H          1 MOL1         0.0783
       6    O2      15.947188   15.392758   23.815545 O.3        1 MOL1        -0.5519
       7    H3      16.443547   15.192653   24.640655 H          1 MOL1         0.3769
       8    C3      18.167402   14.835735   22.965570 C.3        1 MOL1         0.1053
       9    H4      18.384112   15.908727   22.939737 H          1 MOL1         0.0783
      10    O3      18.582237   14.282225   24.220530 O.3        1 MOL1        -0.5519
      11    H5      19.571197   14.299840   24.226778 H          1 MOL1         0.3769
      12    C4      18.952170   14.159970   21.815260 C.3        1 MOL1         0.1018
      13    H6      18.947128   13.075169   21.984655 H          1 MOL1         0.0783
      14    C5      18.358342   14.471636   20.412259 C.3        1 MOL1         0.1043
      15    H7      18.608461   15.509994   20.157942 H          1 MOL1         0.0783
      16    O4      16.916090   14.301912   20.424660 O.3        1 MOL1        -0.3740
      17    C6      18.920167   13.563538   19.295982 C.3        1 MOL1         0.0138
      18    H8      20.001724   13.726242   19.207502 H          1 MOL1         0.0794
      19    H9      18.466796   13.858449   18.340228 H          1 MOL1         0.0794
      20    O5      18.648500   12.185577   19.568604 O.3        1 MOL1        -0.5486
      21    H10     17.674348   12.116101   19.681658 H          1 MOL1         0.3769
      22    C7      15.031009   20.242663   20.347310 C.3        1 MOL1         0.2972
      23    H11     14.449165   21.083260   19.947359 H          1 MOL1         0.0751
      24    O6      16.195261   20.697310   21.066640 O.3        1 MOL1        -0.3740
      25    C8      14.166935   19.392572   21.314805 C.3        1 MOL1         0.1003
      26    H12     13.291065   19.043455   20.753318 H          1 MOL1         0.0783
      27    O7      13.726339   20.205120   22.416271 O.3        1 MOL1        -0.5519
      28    H13     14.526992   20.640942   22.801454 H          1 MOL1         0.3769
      29    C9      14.944792   18.140449   21.807097 C.3        1 MOL1         0.1053
      30    H14     15.739213   18.486565   22.479649 H          1 MOL1         0.0783
      31    O8      14.070481   17.252590   22.513835 O.3        1 MOL1        -0.5519
      32    H15     14.653698   16.634445   23.019735 H          1 MOL1         0.3769
      33    C10     15.603585   17.373122   20.626234 C.3        1 MOL1         0.1018
      34    H16     14.833653   16.826415   20.065404 H          1 MOL1         0.0783
      35    C11     16.351572   18.311407   19.646146 C.3        1 MOL1         0.1043
      36    H17     17.255550   18.698276   20.135328 H          1 MOL1         0.0783
      37    O9      15.470828   19.394002   19.268056 O.3        1 MOL1        -0.3740
      38    C12     16.769913   17.583232   18.351666 C.3        1 MOL1         0.0138
      39    H18     15.870538   17.259779   17.810694 H          1 MOL1         0.0794
      40    H19     17.344542   16.684389   18.608664 H          1 MOL1         0.0794
      41    O10     17.561366   18.450271   17.537130 O.3        1 MOL1        -0.5486
      42    H20     17.034482   19.271898   17.424261 H          1 MOL1         0.3769
      43    C13     18.330440   24.163235   21.856746 C.3        1 MOL1         0.2972
      44    H21     18.675136   25.193225   22.013175 H          1 MOL1         0.0751
      45    O11     19.418065   23.217967   21.886940 O.3        1 MOL1        -0.3740
      46    C14     17.321358   23.756374   22.959659 C.3        1 MOL1         0.1003
      47    H22     16.459024   24.431567   22.885413 H          1 MOL1         0.0783
      48    O12     17.907215   23.881952   24.265456 O.3        1 MOL1        -0.5519
      49    H23     18.864820   23.642386   24.186079 H          1 MOL1         0.3769
      50    C15     16.817546   22.311653   22.727865 C.3        1 MOL1         0.1053
      51    H24     17.665940   21.633927   22.875743 H          1 MOL1         0.0783
      52    O13     15.783179   22.008287   23.669585 O.3        1 MOL1        -0.5519
      53    H25     16.129163   22.320967   24.534733 H          1 MOL1         0.3769
      54    C16     16.287761   22.118828   21.285408 C.3        1 MOL1         0.1018
      55    H26     15.306245   22.606341   21.215040 H          1 MOL1         0.0783
      56    C17     17.250624   22.702623   20.211452 C.3        1 MOL1         0.1043
      57    H27     18.133538   22.052483   20.148399 H          1 MOL1         0.0783
      58    O14     17.657727   24.042280   20.585809 O.3        1 MOL1        -0.3740
      59    C18     16.628524   22.787368   18.799503 C.3        1 MOL1         0.0138
      60    H28     16.426205   21.772919   18.433066 H          1 MOL1         0.0794
      61    H29     17.361895   23.238225   18.117630 H          1 MOL1         0.0794
      62    O15     15.423291   23.557963   18.810717 O.3        1 MOL1        -0.5486
      63    H30     15.665709   24.442066   19.165714 H          1 MOL1         0.3769
      64    C19     23.518052   22.731516   21.830225 C.3        1 MOL1         0.2972
      65    H31     24.609225   22.848212   21.826077 H          1 MOL1         0.0751
      66    O16     23.134802   21.354860   21.622816 O.3        1 MOL1        -0.3740
      67    C20     22.939251   23.239911   23.176241 C.3        1 MOL1         0.1003
      68    H32     23.176078   24.309692   23.242839 H          1 MOL1         0.0783
      69    O17     23.532325   22.569626   24.296724 O.3        1 MOL1        -0.5519
      70    H33     23.362344   21.601194   24.186975 H          1 MOL1         0.3769
      71    C21     21.400983   23.096639   23.205850 C.3        1 MOL1         0.1053
      72    H34     21.156651   22.028809   23.189213 H          1 MOL1         0.0783
      73    O18     20.885390   23.685137   24.403522 O.3        1 MOL1        -0.5519
      74    H35     21.497898   23.391848   25.114673 H          1 MOL1         0.3769
      75    C22     20.750449   23.759237   21.967887 C.3        1 MOL1         0.1018
      76    H36     20.752113   24.848468   22.105728 H          1 MOL1         0.0783
      77    C23     21.476396   23.395016   20.642906 C.3        1 MOL1         0.1043
      78    H37     21.222944   22.356566   20.402520 H          1 MOL1         0.0783
      79    O19     22.915287   23.526855   20.786915 O.3        1 MOL1        -0.3740
      80    C24     21.044910   24.276450   19.450466 C.3        1 MOL1         0.0138
      81    H38     19.969776   24.143412   19.273631 H          1 MOL1         0.0794
      82    H39     21.570887   23.932269   18.549740 H          1 MOL1         0.0794
      83    O20     21.337339   25.654495   19.699733 O.3        1 MOL1        -0.5486
      84    H40     22.299124   25.697231   19.899395 H          1 MOL1         0.3769
      85    C25     24.794144   17.659707   20.647749 C.3        1 MOL1         0.2972
      86    H41     25.366849   16.833833   20.206722 H          1 MOL1         0.0751
      87    O21     23.766059   17.171272   21.531539 O.3        1 MOL1        -0.3740
      88    C26     25.737347   18.604823   21.437634 C.3        1 MOL1         0.1003
      89    H42     26.489974   18.973149   20.728088 H          1 MOL1         0.0783
      90    O22     26.398434   17.908888   22.509254 O.3        1 MOL1        -0.5519
      91    H43     26.942474   17.197405   22.111619 H          1 MOL1         0.3769
      92    C27     24.978375   19.834430   21.997004 C.3        1 MOL1         0.1053
      93    H44     24.321762   19.484709   22.804804 H          1 MOL1         0.0783
      94    O23     25.938530   20.757682   22.519683 O.3        1 MOL1        -0.5519
      95    H45     26.483641   20.229880   23.143396 H          1 MOL1         0.3769
      96    C28     24.094018   20.529468   20.923450 C.3        1 MOL1         0.1018
      97    H46     24.728431   21.131581   20.259537 H          1 MOL1         0.0783
      98    C29     23.296078   19.508012   20.062760 C.3        1 MOL1         0.1043
      99    H47     22.486079   19.088715   20.672336 H          1 MOL1         0.0783
     100    O24     24.170823   18.445541   19.613276 O.3        1 MOL1        -0.3740
     101    C30     22.662922   20.125609   18.795994 C.3        1 MOL1         0.0138
     102    H48     21.942723   20.896725   19.087700 H          1 MOL1         0.0794
     103    H49     22.103357   19.342678   18.266798 H          1 MOL1         0.0794
     104    O25     23.661061   20.683552   17.936845 O.3        1 MOL1        -0.5486
     105    H50     24.311650   19.965075   17.773852 H          1 MOL1         0.3769
     106    C31     21.368235   13.764015   21.868334 C.3        1 MOL1         0.2972
     107    H51     21.003176   12.730993   21.926882 H          1 MOL1         0.0751
     108    O26     20.283197   14.714076   21.866198 O.3        1 MOL1        -0.3740
     109    C32     22.294147   14.068856   23.072499 C.3        1 MOL1         0.1003
     110    H52     23.118547   13.344535   23.046061 H          1 MOL1         0.0783
     111    O27     21.587526   13.940217   24.314786 O.3        1 MOL1        -0.5519
     112    H53     22.206008   14.297733   24.990506 H          1 MOL1         0.3769
     113    C33     22.900338   15.486288   22.962564 C.3        1 MOL1         0.1053
     114    H54     22.083941   16.204782   23.093167 H          1 MOL1         0.0783
     115    O28     23.880179   15.676334   23.989270 O.3        1 MOL1        -0.5519
     116    H55     24.279462   16.559332   23.819942 H          1 MOL1         0.3769
     117    C34     23.548516   15.744074   21.579146 C.3        1 MOL1         0.1018
     118    H56     24.499547   15.197231   21.536281 H          1 MOL1         0.0783
     119    C35     22.619610   15.294701   20.408781 C.3        1 MOL1         0.1043
     120    H57     21.770983   15.989042   20.347339 H          1 MOL1         0.0783
     121    O29     22.138307   13.952009   20.663941 O.3        1 MOL1        -0.3740
     122    C36     23.300059   15.244046   19.020599 C.3        1 MOL1         0.0138
     123    H58     23.507489   16.261594   18.672027 H          1 MOL1         0.0794
     124    H59     22.595823   14.802818   18.302544 H          1 MOL1         0.0794
     125    O30     24.506890   14.476533   19.060151 O.3        1 MOL1        -0.5486
     126    H60     24.250802   13.575850   19.359079 H          1 MOL1         0.3769
     127    C1      18.190473   19.248136   24.300475 C.3        1 MOL1        -0.1684
     128    H1      18.604040   20.210985   24.619791 H          1 MOL1         0.0833
     129    H2      17.112695   19.434331   24.200838 H          1 MOL1         0.0833
     130    C2      18.718468   18.861083   22.895016 C.3        1 MOL1        -0.1684
     131    H3      17.992934   18.177181   22.446171 H          1 MOL1         0.0833
     132    H4      18.727232   19.748272   22.249214 H          1 MOL1         0.0833
     133    C3      20.097539   18.168021   22.827363 C.3        1 MOL1        -0.1684
     134    H5      20.269721   17.868126   21.785007 H          1 MOL1         0.0833
     135    H6      20.082243   17.230276   23.390143 H          1 MOL1         0.0833
     136    C4      21.294073   19.038550   23.270647 C.3        1 MOL1        -0.1760
     137    H7      22.211693   18.487274   23.046771 H          1 MOL1         0.0833
     138    H8      21.316808   19.932411   22.642799 H          1 MOL1         0.0833
     139    C5      21.354816   19.466975   24.754130 C.3        1 MOL1         0.1219
     140    H9      20.677473   20.313956   24.913396 H          1 MOL1         0.0790
     141    C6      21.006671   18.343889   25.764954 C.3        1 MOL1        -0.1760
     142    H10     21.167238   17.354146   25.320956 H          1 MOL1         0.0833
     143    H11     21.711613   18.392440   26.605041 H          1 MOL1         0.0833
     144    C7      19.579084   18.444962   26.366733 C.3        1 MOL1        -0.1684
     145    H12     19.450990   19.431309   26.832895 H          1 MOL1         0.0833
     146    H13     19.510974   17.718871   27.188028 H          1 MOL1         0.0833
     147    C8      18.392428   18.176634   25.403355 C.3        1 MOL1        -0.1684
     148    H14     17.480033   18.157433   26.014544 H          1 MOL1         0.0833
     149    H15     18.464642   17.171469   24.970654 H          1 MOL1         0.0833
     150    O1      22.681278   19.912868   25.008952 O.3        1 MOL1        -0.5508
     151    H16     22.723385   20.124897   25.963187 H          1 MOL1         0.3780
@<TRIPOS>BOND
    1     1     2    1
    2     1     3    1
    3     1     4    1
    4     4     5    1
    5     4     6    1
    6     6     7    1
    7     4     8    1
    8     8     9    1
    9     8    10    1
   10    10    11    1
   11     8    12    1
   12    12    13    1
   13    12    14    1
   14    14    15    1
   15     1    16    1
   16    14    16    1
   17    14    17    1
   18    17    18    1
   19    17    19    1
   20    17    20    1
   21    20    21    1
   22    22    23    1
   23    22    24    1
   24    22    25    1
   25    25    26    1
   26    25    27    1
   27    27    28    1
   28    25    29    1
   29    29    30    1
   30    29    31    1
   31    31    32    1
   32     3    33    1
   33    29    33    1
   34    33    34    1
   35    33    35    1
   36    35    36    1
   37    22    37    1
   38    35    37    1
   39    35    38    1
   40    38    39    1
   41    38    40    1
   42    38    41    1
   43    41    42    1
   44    43    44    1
   45    43    45    1
   46    43    46    1
   47    46    47    1
   48    46    48    1
   49    48    49    1
   50    46    50    1
   51    50    51    1
   52    50    52    1
   53    52    53    1
   54    24    54    1
   55    50    54    1
   56    54    55    1
   57    54    56    1
   58    56    57    1
   59    43    58    1
   60    56    58    1
   61    56    59    1
   62    59    60    1
   63    59    61    1
   64    59    62    1
   65    62    63    1
   66    64    65    1
   67    64    66    1
   68    64    67    1
   69    67    68    1
   70    67    69    1
   71    69    70    1
   72    67    71    1
   73    71    72    1
   74    71    73    1
   75    73    74    1
   76    45    75    1
   77    71    75    1
   78    75    76    1
   79    75    77    1
   80    77    78    1
   81    64    79    1
   82    77    79    1
   83    77    80    1
   84    80    81    1
   85    80    82    1
   86    80    83    1
   87    83    84    1
   88    85    86    1
   89    85    87    1
   90    85    88    1
   91    88    89    1
   92    88    90    1
   93    90    91    1
   94    88    92    1
   95    92    93    1
   96    92    94    1
   97    94    95    1
   98    66    96    1
   99    92    96    1
  100    96    97    1
  101    96    98    1
  102    98    99    1
  103    85   100    1
  104    98   100    1
  105    98   101    1
  106   101   102    1
  107   101   103    1
  108   101   104    1
  109   104   105    1
  110   106   107    1
  111    12   108    1
  112   106   108    1
  113   106   109    1
  114   109   110    1
  115   109   111    1
  116   111   112    1
  117   109   113    1
  118   113   114    1
  119   113   115    1
  120   115   116    1
  121    87   117    1
  122   113   117    1
  123   117   118    1
  124   117   119    1
  125   119   120    1
  126   106   121    1
  127   119   121    1
  128   119   122    1
  129   122   123    1
  130   122   124    1
  131   122   125    1
  132   125   126    1
  133   127   128    1
  134   127   129    1
  135   127   130    1
  136   130   131    1
  137   130   132    1
  138   130   133    1
  139   133   134    1
  140   133   135    1
  141   133   136    1
  142   136   137    1
  143   136   138    1
  144   136   139    1
  145   139   140    1
  146   139   141    1
  147   141   142    1
  148   141   143    1
  149   141   144    1
  150   144   145    1
  151   144   146    1
  152   127   147    1
  153   144   147    1
  154   147   148    1
  155   147   149    1
  156   139   150    1
  157   150   151    1
@<TRIPOS>SUBSTRUCTURE
       1 MOL1            1 RESIDUE      1      MOL     
       2 MOL1          151 RESIDUE      1      MOL     
@<SCITEGIC>MOL_PROPERTY
VM2 Rank
SciTegic.value.IntegerValue
5

@<SCITEGIC>MOL_PROPERTY
Conf_Id
SciTegic.value.IntegerValue
26830

@<SCITEGIC>MOL_PROPERTY
Probability
SciTegic.value.DoubleValue
1.30

@<SCITEGIC>MOL_PROPERTY
Sum Probability
SciTegic.value.DoubleValue
8.71

@<SCITEGIC>MOL_PROPERTY
Delta G
SciTegic.value.DoubleValue
0.278

@<SCITEGIC>MOL_PROPERTY
G
SciTegic.value.DoubleValue
580.937

@<SCITEGIC>MOL_PROPERTY
E
SciTegic.value.DoubleValue
379.999

@<SCITEGIC>MOL_PROPERTY
-TS
SciTegic.value.DoubleValue
200.937

@<SCITEGIC>MOL_PROPERTY
U+W
SciTegic.value.DoubleValue
246.757

@<SCITEGIC>MOL_PROPERTY
U
SciTegic.value.DoubleValue
284.760

@<SCITEGIC>MOL_PROPERTY
W
SciTegic.value.DoubleValue
-38.003

@<SCITEGIC>MOL_PROPERTY
W(PB)
SciTegic.value.DoubleValue
-44.177

@<SCITEGIC>MOL_PROPERTY
W(SA)
SciTegic.value.DoubleValue
6.175

@<SCITEGIC>MOL_PROPERTY
Valence
SciTegic.value.DoubleValue
158.743

@<SCITEGIC>MOL_PROPERTY
Coulomb
SciTegic.value.DoubleValue
150.198

@<SCITEGIC>MOL_PROPERTY
VdW
SciTegic.value.DoubleValue
-24.181

@<SCITEGIC>MOL_PROPERTY
VdW6
SciTegic.value.DoubleValue
-179.155

@<SCITEGIC>MOL_PROPERTY
VdW12
SciTegic.value.DoubleValue
154.973

@<SCITEGIC>MOL_PROPERTY
Bond
SciTegic.value.DoubleValue
4.658

@<SCITEGIC>MOL_PROPERTY
Angle
SciTegic.value.DoubleValue
14.367

@<SCITEGIC>MOL_PROPERTY
Pdih
SciTegic.value.DoubleValue
139.718

@<SCITEGIC>MOL_PROPERTY
Idih
SciTegic.value.DoubleValue
0.000

@<SCITEGIC>MOL_PROPERTY
Tether
SciTegic.value.DoubleValue
0.000

@<TRIPOS>MOLECULE
CD_guest-s17_vm2_single.mol2 : vm2 host+ligand conformer 6
         151         157           2
SMALL
USER_CHARGES
 
@<TRIPOS>ATOM
       1    C1      16.220400   15.098012   21.694226 C.3        1 MOL1         0.2972
       2    H1      15.142313   14.900649   21.747450 H          1 MOL1         0.0751
       3    O1      16.511125   16.509464   21.715400 O.3        1 MOL1        -0.3740
       4    C2      16.940289   14.449569   22.901842 C.3        1 MOL1         0.1003
       5    H2      16.750567   13.369351   22.855581 H          1 MOL1         0.0783
       6    O2      16.429446   14.962942   24.142822 O.3        1 MOL1        -0.5519
       7    H3      16.143516   15.897241   23.982857 H          1 MOL1         0.3769
       8    C3      18.469724   14.665936   22.814370 C.3        1 MOL1         0.1053
       9    H4      18.675989   15.735337   22.947925 H          1 MOL1         0.0783
      10    O3      19.107095   13.908328   23.847448 O.3        1 MOL1        -0.5519
      11    H5      18.587464   14.102269   24.658776 H          1 MOL1         0.3769
      12    C4      19.026557   14.241226   21.434948 C.3        1 MOL1         0.1018
      13    H6      19.046706   13.144068   21.395142 H          1 MOL1         0.0783
      14    C5      18.181331   14.798787   20.256523 C.3        1 MOL1         0.1043
      15    H7      18.346269   15.882984   20.192473 H          1 MOL1         0.0783
      16    O4      16.777155   14.530099   20.490063 O.3        1 MOL1        -0.3740
      17    C6      18.550668   14.180893   18.889344 C.3        1 MOL1         0.0138
      18    H8      19.583677   14.453818   18.637659 H          1 MOL1         0.0794
      19    H9      17.901500   14.616892   18.118355 H          1 MOL1         0.0794
      20    O5      18.407199   12.757527   18.911072 O.3        1 MOL1        -0.5486
      21    H10     17.477105   12.580405   19.175779 H          1 MOL1         0.3769
      22    C7      14.787869   20.261506   21.283814 C.3        1 MOL1         0.2972
      23    H11     14.089785   21.098062   21.152541 H          1 MOL1         0.0751
      24    O6      16.161477   20.704665   21.267269 O.3        1 MOL1        -0.3740
      25    C8      14.508879   19.560577   22.636854 C.3        1 MOL1         0.1003
      26    H12     13.470030   19.206468   22.615833 H          1 MOL1         0.0783
      27    O7      14.674388   20.473121   23.734229 O.3        1 MOL1        -0.5519
      28    H13     15.210512   21.237410   23.405799 H          1 MOL1         0.3769
      29    C9      15.426698   18.331952   22.820128 C.3        1 MOL1         0.1053
      30    H14     16.450687   18.700771   22.930118 H          1 MOL1         0.0783
      31    O8      15.042009   17.616957   23.997743 O.3        1 MOL1        -0.5519
      32    H15     14.888730   18.312494   24.675556 H          1 MOL1         0.3769
      33    C10     15.380550   17.393304   21.591003 C.3        1 MOL1         0.1018
      34    H16     14.425732   16.851481   21.600123 H          1 MOL1         0.0783
      35    C11     15.525377   18.164356   20.250901 C.3        1 MOL1         0.1043
      36    H17     16.560876   18.519541   20.162611 H          1 MOL1         0.0783
      37    O9      14.613236   19.290646   20.231707 O.3        1 MOL1        -0.3740
      38    C12     15.210985   17.297913   19.011209 C.3        1 MOL1         0.0138
      39    H18     15.922342   16.463926   18.962986 H          1 MOL1         0.0794
      40    H19     15.358984   17.906662   18.109301 H          1 MOL1         0.0794
      41    O10     13.869966   16.801603   19.057973 O.3        1 MOL1        -0.5486
      42    H20     13.291630   17.590282   19.158469 H          1 MOL1         0.3769
      43    C13     18.549568   23.977727   20.360084 C.3        1 MOL1         0.2972
      44    H21     18.982014   24.921647   20.004316 H          1 MOL1         0.0751
      45    O11     19.571122   23.076417   20.832743 O.3        1 MOL1        -0.3740
      46    C14     17.487795   24.226244   21.468207 C.3        1 MOL1         0.1003
      47    H22     16.676359   24.808172   21.012109 H          1 MOL1         0.0783
      48    O12     18.018253   24.966640   22.577332 O.3        1 MOL1        -0.5519
      49    H23     18.687132   24.382347   23.015889 H          1 MOL1         0.3769
      50    C15     16.896090   22.881971   21.950742 C.3        1 MOL1         0.1053
      51    H24     17.703717   22.319035   22.431526 H          1 MOL1         0.0783
      52    O13     15.842257   23.120300   22.889300 O.3        1 MOL1        -0.5519
      53    H25     16.181682   23.825292   23.484619 H          1 MOL1         0.3769
      54    C16     16.364684   22.042500   20.764152 C.3        1 MOL1         0.1018
      55    H26     15.430846   22.495273   20.405526 H          1 MOL1         0.0783
      56    C17     17.369382   21.973185   19.580726 C.3        1 MOL1         0.1043
      57    H27     18.201617   21.314594   19.863491 H          1 MOL1         0.0783
      58    O14     17.870125   23.303490   19.278885 O.3        1 MOL1        -0.3740
      59    C18     16.739113   21.410298   18.287618 C.3        1 MOL1         0.0138
      60    H28     16.371300   20.394286   18.478756 H          1 MOL1         0.0794
      61    H29     17.519296   21.337979   17.518250 H          1 MOL1         0.0794
      62    O15     15.669549   22.243963   17.831362 O.3        1 MOL1        -0.5486
      63    H30     16.046078   23.148439   17.749481 H          1 MOL1         0.3769
      64    C19     23.378183   22.707467   22.337328 C.3        1 MOL1         0.2972
      65    H31     24.377638   22.827323   22.775049 H          1 MOL1         0.0751
      66    O16     23.207378   21.403620   21.747899 O.3        1 MOL1        -0.3740
      67    C20     22.290090   22.915723   23.419780 C.3        1 MOL1         0.1003
      68    H32     22.402613   23.940791   23.796133 H          1 MOL1         0.0783
      69    O17     22.444473   21.995719   24.512817 O.3        1 MOL1        -0.5519
      70    H33     23.280363   21.493579   24.355262 H          1 MOL1         0.3769
      71    C21     20.874722   22.781423   22.814262 C.3        1 MOL1         0.1053
      72    H34     20.723368   21.727484   22.540995 H          1 MOL1         0.0783
      73    O18     19.918809   23.172874   23.805186 O.3        1 MOL1        -0.5519
      74    H35     20.202011   22.697920   24.618244 H          1 MOL1         0.3769
      75    C22     20.696644   23.639080   21.534422 C.3        1 MOL1         0.1018
      76    H36     20.524472   24.683365   21.825430 H          1 MOL1         0.0783
      77    C23     21.914438   23.555733   20.570948 C.3        1 MOL1         0.1043
      78    H37     21.889954   22.577021   20.074070 H          1 MOL1         0.0783
      79    O19     23.154557   23.694797   21.308937 O.3        1 MOL1        -0.3740
      80    C24     21.898139   24.635424   19.466224 C.3        1 MOL1         0.0138
      81    H38     21.023031   24.475454   18.822642 H          1 MOL1         0.0794
      82    H39     22.791412   24.511665   18.839279 H          1 MOL1         0.0794
      83    O20     21.864003   25.950877   20.027123 O.3        1 MOL1        -0.5486
      84    H40     22.649895   26.020166   20.613893 H          1 MOL1         0.3769
      85    C25     25.122551   17.747284   21.429517 C.3        1 MOL1         0.2972
      86    H41     25.840347   16.928681   21.291987 H          1 MOL1         0.0751
      87    O21     23.771540   17.259664   21.548426 O.3        1 MOL1        -0.3740
      88    C26     25.462538   18.533082   22.719032 C.3        1 MOL1         0.1003
      89    H42     26.479362   18.930269   22.603390 H          1 MOL1         0.0783
      90    O22     25.420762   17.667708   23.865298 O.3        1 MOL1        -0.5519
      91    H43     24.808695   16.922068   23.644735 H          1 MOL1         0.3769
      92    C27     24.502714   19.731600   22.911861 C.3        1 MOL1         0.1053
      93    H44     23.504460   19.333860   23.125509 H          1 MOL1         0.0783
      94    O23     24.953837   20.516999   24.019951 O.3        1 MOL1        -0.5519
      95    H45     25.213843   19.858262   24.703633 H          1 MOL1         0.3769
      96    C28     24.396007   20.599424   21.630158 C.3        1 MOL1         0.1018
      97    H46     25.296208   21.218988   21.522021 H          1 MOL1         0.0783
      98    C29     24.213906   19.743914   20.348124 C.3        1 MOL1         0.1043
      99    H47     23.196614   19.329642   20.350035 H          1 MOL1         0.0783
     100    O24     25.183711   18.667869   20.321974 O.3        1 MOL1        -0.3740
     101    C30     24.390979   20.561999   19.049498 C.3        1 MOL1         0.0138
     102    H48     23.658104   21.379155   19.036130 H          1 MOL1         0.0794
     103    H49     24.176272   19.912020   18.190848 H          1 MOL1         0.0794
     104    O25     25.717337   21.088650   18.950955 O.3        1 MOL1        -0.5486
     105    H50     26.322060   20.320663   19.058245 H          1 MOL1         0.3769
     106    C31     21.379432   13.934074   20.841954 C.3        1 MOL1         0.2972
     107    H51     20.977976   12.960623   20.532004 H          1 MOL1         0.0751
     108    O26     20.345594   14.809763   21.331629 O.3        1 MOL1        -0.3740
     109    C32     22.433796   13.762216   21.965562 C.3        1 MOL1         0.1003
     110    H52     23.245352   13.140982   21.565105 H          1 MOL1         0.0783
     111    O27     21.865528   13.112377   23.113890 O.3        1 MOL1        -0.5519
     112    H53     20.985949   13.533240   23.290971 H          1 MOL1         0.3769
     113    C33     23.031946   15.133674   22.360572 C.3        1 MOL1         0.1053
     114    H54     22.232008   15.728226   22.816051 H          1 MOL1         0.0783
     115    O28     24.092849   14.949272   23.303411 O.3        1 MOL1        -0.5519
     116    H55     23.747578   14.294304   23.950204 H          1 MOL1         0.3769
     117    C34     23.552197   15.901381   21.120933 C.3        1 MOL1         0.1018
     118    H56     24.476336   15.422990   20.770827 H          1 MOL1         0.0783
     119    C35     22.517613   15.921904   19.962620 C.3        1 MOL1         0.1043
     120    H57     21.686687   16.582610   20.244030 H          1 MOL1         0.0783
     121    O29     22.023905   14.580459   19.725043 O.3        1 MOL1        -0.3740
     122    C36     23.104996   16.431086   18.627598 C.3        1 MOL1         0.0138
     123    H58     23.456902   17.461589   18.755646 H          1 MOL1         0.0794
     124    H59     22.304847   16.449680   17.875760 H          1 MOL1         0.0794
     125    O30     24.178465   15.594750   18.186027 O.3        1 MOL1        -0.5486
     126    H60     23.817360   14.680735   18.160434 H          1 MOL1         0.3769
     127    C1      19.279761   17.061284   25.721668 C.3        1 MOL1        -0.1684
     128    H1      18.518620   16.830097   24.969884 H          1 MOL1         0.0833
     129    H2      19.124684   16.308994   26.506716 H          1 MOL1         0.0833
     130    C2      20.706024   16.841675   25.154759 C.3        1 MOL1        -0.1684
     131    H3      21.377954   16.659613   26.004239 H          1 MOL1         0.0833
     132    H4      20.718924   15.915505   24.568366 H          1 MOL1         0.0833
     133    C3      21.326153   17.986662   24.316159 C.3        1 MOL1        -0.1684
     134    H5      22.355888   17.688192   24.084741 H          1 MOL1         0.0833
     135    H6      21.433195   18.890802   24.926434 H          1 MOL1         0.0833
     136    C4      20.622537   18.320132   22.973199 C.3        1 MOL1        -0.1760
     137    H7      21.233286   19.069202   22.452368 H          1 MOL1         0.0833
     138    H8      20.626806   17.430764   22.332153 H          1 MOL1         0.0833
     139    C5      19.172926   18.854659   23.050580 C.3        1 MOL1         0.1219
     140    H9      18.498261   18.010499   23.227952 H          1 MOL1         0.0790
     141    C6      18.940824   19.926737   24.146764 C.3        1 MOL1        -0.1760
     142    H10     19.885590   20.410419   24.418107 H          1 MOL1         0.0833
     143    H11     18.317615   20.725593   23.733099 H          1 MOL1         0.0833
     144    C7      18.218025   19.421622   25.422164 C.3        1 MOL1        -0.1684
     145    H12     17.266626   18.950850   25.145605 H          1 MOL1         0.0833
     146    H13     17.946538   20.301314   26.021221 H          1 MOL1         0.0833
     147    C8      19.020852   18.460131   26.334406 C.3        1 MOL1        -0.1684
     148    H14     18.431937   18.317727   27.250534 H          1 MOL1         0.0833
     149    H15     19.957888   18.927665   26.663004 H          1 MOL1         0.0833
     150    O1      18.852942   19.419123   21.780597 O.3        1 MOL1        -0.5508
     151    H16     17.952339   19.799931   21.845016 H          1 MOL1         0.3780
@<TRIPOS>BOND
    1     1     2    1
    2     1     3    1
    3     1     4    1
    4     4     5    1
    5     4     6    1
    6     6     7    1
    7     4     8    1
    8     8     9    1
    9     8    10    1
   10    10    11    1
   11     8    12    1
   12    12    13    1
   13    12    14    1
   14    14    15    1
   15     1    16    1
   16    14    16    1
   17    14    17    1
   18    17    18    1
   19    17    19    1
   20    17    20    1
   21    20    21    1
   22    22    23    1
   23    22    24    1
   24    22    25    1
   25    25    26    1
   26    25    27    1
   27    27    28    1
   28    25    29    1
   29    29    30    1
   30    29    31    1
   31    31    32    1
   32     3    33    1
   33    29    33    1
   34    33    34    1
   35    33    35    1
   36    35    36    1
   37    22    37    1
   38    35    37    1
   39    35    38    1
   40    38    39    1
   41    38    40    1
   42    38    41    1
   43    41    42    1
   44    43    44    1
   45    43    45    1
   46    43    46    1
   47    46    47    1
   48    46    48    1
   49    48    49    1
   50    46    50    1
   51    50    51    1
   52    50    52    1
   53    52    53    1
   54    24    54    1
   55    50    54    1
   56    54    55    1
   57    54    56    1
   58    56    57    1
   59    43    58    1
   60    56    58    1
   61    56    59    1
   62    59    60    1
   63    59    61    1
   64    59    62    1
   65    62    63    1
   66    64    65    1
   67    64    66    1
   68    64    67    1
   69    67    68    1
   70    67    69    1
   71    69    70    1
   72    67    71    1
   73    71    72    1
   74    71    73    1
   75    73    74    1
   76    45    75    1
   77    71    75    1
   78    75    76    1
   79    75    77    1
   80    77    78    1
   81    64    79    1
   82    77    79    1
   83    77    80    1
   84    80    81    1
   85    80    82    1
   86    80    83    1
   87    83    84    1
   88    85    86    1
   89    85    87    1
   90    85    88    1
   91    88    89    1
   92    88    90    1
   93    90    91    1
   94    88    92    1
   95    92    93    1
   96    92    94    1
   97    94    95    1
   98    66    96    1
   99    92    96    1
  100    96    97    1
  101    96    98    1
  102    98    99    1
  103    85   100    1
  104    98   100    1
  105    98   101    1
  106   101   102    1
  107   101   103    1
  108   101   104    1
  109   104   105    1
  110   106   107    1
  111    12   108    1
  112   106   108    1
  113   106   109    1
  114   109   110    1
  115   109   111    1
  116   111   112    1
  117   109   113    1
  118   113   114    1
  119   113   115    1
  120   115   116    1
  121    87   117    1
  122   113   117    1
  123   117   118    1
  124   117   119    1
  125   119   120    1
  126   106   121    1
  127   119   121    1
  128   119   122    1
  129   122   123    1
  130   122   124    1
  131   122   125    1
  132   125   126    1
  133   127   128    1
  134   127   129    1
  135   127   130    1
  136   130   131    1
  137   130   132    1
  138   130   133    1
  139   133   134    1
  140   133   135    1
  141   133   136    1
  142   136   137    1
  143   136   138    1
  144   136   139    1
  145   139   140    1
  146   139   141    1
  147   141   142    1
  148   141   143    1
  149   141   144    1
  150   144   145    1
  151   144   146    1
  152   127   147    1
  153   144   147    1
  154   147   148    1
  155   147   149    1
  156   139   150    1
  157   150   151    1
@<TRIPOS>SUBSTRUCTURE
       1 MOL1            1 RESIDUE      1      MOL     
       2 MOL1          151 RESIDUE      1      MOL     
@<SCITEGIC>MOL_PROPERTY
VM2 Rank
SciTegic.value.IntegerValue
6

@<SCITEGIC>MOL_PROPERTY
Conf_Id
SciTegic.value.IntegerValue
27393

@<SCITEGIC>MOL_PROPERTY
Probability
SciTegic.value.DoubleValue
1.28

@<SCITEGIC>MOL_PROPERTY
Sum Probability
SciTegic.value.DoubleValue
10.00

@<SCITEGIC>MOL_PROPERTY
Delta G
SciTegic.value.DoubleValue
0.283

@<SCITEGIC>MOL_PROPERTY
G
SciTegic.value.DoubleValue
580.942

@<SCITEGIC>MOL_PROPERTY
E
SciTegic.value.DoubleValue
378.745

@<SCITEGIC>MOL_PROPERTY
-TS
SciTegic.value.DoubleValue
202.197

@<SCITEGIC>MOL_PROPERTY
U+W
SciTegic.value.DoubleValue
245.503

@<SCITEGIC>MOL_PROPERTY
U
SciTegic.value.DoubleValue
276.961

@<SCITEGIC>MOL_PROPERTY
W
SciTegic.value.DoubleValue
-31.458

@<SCITEGIC>MOL_PROPERTY
W(PB)
SciTegic.value.DoubleValue
-37.713

@<SCITEGIC>MOL_PROPERTY
W(SA)
SciTegic.value.DoubleValue
6.255

@<SCITEGIC>MOL_PROPERTY
Valence
SciTegic.value.DoubleValue
162.738

@<SCITEGIC>MOL_PROPERTY
Coulomb
SciTegic.value.DoubleValue
140.008

@<SCITEGIC>MOL_PROPERTY
VdW
SciTegic.value.DoubleValue
-25.785

@<SCITEGIC>MOL_PROPERTY
VdW6
SciTegic.value.DoubleValue
-184.384

@<SCITEGIC>MOL_PROPERTY
VdW12
SciTegic.value.DoubleValue
158.598

@<SCITEGIC>MOL_PROPERTY
Bond
SciTegic.value.DoubleValue
4.491

@<SCITEGIC>MOL_PROPERTY
Angle
SciTegic.value.DoubleValue
13.816

@<SCITEGIC>MOL_PROPERTY
Pdih
SciTegic.value.DoubleValue
144.430

@<SCITEGIC>MOL_PROPERTY
Idih
SciTegic.value.DoubleValue
0.000

@<SCITEGIC>MOL_PROPERTY
Tether
SciTegic.value.DoubleValue
0.000

@<TRIPOS>MOLECULE
CD_guest-s17_vm2_single.mol2 : vm2 host+ligand conformer 7
         151         157           2
SMALL
USER_CHARGES
 
@<TRIPOS>ATOM
       1    C1      16.212088   15.142144   21.445664 C.3        1 MOL1         0.2972
       2    H1      15.124524   15.024365   21.357917 H          1 MOL1         0.0751
       3    O1      16.623510   16.501546   21.194512 O.3        1 MOL1        -0.3740
       4    C2      16.681942   14.721685   22.860833 C.3        1 MOL1         0.1003
       5    H2      16.435638   13.659635   22.989057 H          1 MOL1         0.0783
       6    O2      16.022165   15.484452   23.880212 O.3        1 MOL1        -0.5519
       7    H3      16.536168   15.298543   24.697731 H          1 MOL1         0.3769
       8    C3      18.213230   14.874299   22.991646 C.3        1 MOL1         0.1053
       9    H4      18.444075   15.942961   22.929730 H          1 MOL1         0.0783
      10    O3      18.651314   14.348797   24.250824 O.3        1 MOL1        -0.5519
      11    H5      19.639319   14.323180   24.220072 H          1 MOL1         0.3769
      12    C4      18.960230   14.155712   21.842581 C.3        1 MOL1         0.1018
      13    H6      18.946060   13.076315   22.043388 H          1 MOL1         0.0783
      14    C5      18.338332   14.439540   20.445480 C.3        1 MOL1         0.1043
      15    H7      18.599195   15.466380   20.157591 H          1 MOL1         0.0783
      16    O4      16.894374   14.296005   20.495875 O.3        1 MOL1        -0.3740
      17    C6      18.857283   13.492820   19.340492 C.3        1 MOL1         0.0138
      18    H8      19.937209   13.640932   19.214827 H          1 MOL1         0.0794
      19    H9      18.378690   13.764662   18.390202 H          1 MOL1         0.0794
      20    O5      18.580009   12.126446   19.661522 O.3        1 MOL1        -0.5486
      21    H10     17.608315   12.069432   19.799808 H          1 MOL1         0.3769
      22    C7      15.039230   20.246806   20.322326 C.3        1 MOL1         0.2972
      23    H11     14.453695   21.080101   19.912552 H          1 MOL1         0.0751
      24    O6      16.204487   20.714911   21.030572 O.3        1 MOL1        -0.3740
      25    C8      14.181760   19.402650   21.301065 C.3        1 MOL1         0.1003
      26    H12     13.313425   19.032271   20.741473 H          1 MOL1         0.0783
      27    O7      13.722976   20.225571   22.386785 O.3        1 MOL1        -0.5519
      28    H13     14.518391   20.654633   22.788430 H          1 MOL1         0.3769
      29    C9      14.975868   18.169371   21.814697 C.3        1 MOL1         0.1053
      30    H14     15.776498   18.534848   22.469745 H          1 MOL1         0.0783
      31    O8      14.115791   17.290575   22.549663 O.3        1 MOL1        -0.5519
      32    H15     14.708938   16.693456   23.069078 H          1 MOL1         0.3769
      33    C10     15.628833   17.384921   20.642397 C.3        1 MOL1         0.1018
      34    H16     14.856053   16.829392   20.094246 H          1 MOL1         0.0783
      35    C11     16.367808   18.311216   19.643723 C.3        1 MOL1         0.1043
      36    H17     17.273224   18.708391   20.121971 H          1 MOL1         0.0783
      37    O9      15.481301   19.385891   19.253511 O.3        1 MOL1        -0.3740
      38    C12     16.780650   17.564582   18.357997 C.3        1 MOL1         0.0138
      39    H18     15.878969   17.229991   17.827739 H          1 MOL1         0.0794
      40    H19     17.359865   16.671677   18.625124 H          1 MOL1         0.0794
      41    O10     17.563972   18.421549   17.525192 O.3        1 MOL1        -0.5486
      42    H20     17.038082   19.243935   17.411489 H          1 MOL1         0.3769
      43    C13     18.305195   24.162894   21.891472 C.3        1 MOL1         0.2972
      44    H21     18.656225   25.185338   22.079125 H          1 MOL1         0.0751
      45    O11     19.394282   23.218217   21.843896 O.3        1 MOL1        -0.3740
      46    C14     17.324624   23.717820   23.005692 C.3        1 MOL1         0.1003
      47    H22     16.461457   24.395422   22.970872 H          1 MOL1         0.0783
      48    O12     17.948192   23.805205   24.297521 O.3        1 MOL1        -0.5519
      49    H23     17.227820   23.761516   24.960651 H          1 MOL1         0.3769
      50    C15     16.823100   22.278433   22.734038 C.3        1 MOL1         0.1053
      51    H24     17.682157   21.604281   22.826252 H          1 MOL1         0.0783
      52    O13     15.812085   21.916636   23.684436 O.3        1 MOL1        -0.5519
      53    H25     16.267909   21.792200   24.542362 H          1 MOL1         0.3769
      54    C16     16.260628   22.130007   21.298207 C.3        1 MOL1         0.1018
      55    H26     15.264341   22.591199   21.269829 H          1 MOL1         0.0783
      56    C17     17.179769   22.772655   20.219267 C.3        1 MOL1         0.1043
      57    H27     18.064875   22.134266   20.095691 H          1 MOL1         0.0783
      58    O14     17.591781   24.096967   20.638746 O.3        1 MOL1        -0.3740
      59    C18     16.507863   22.911886   18.834777 C.3        1 MOL1         0.0138
      60    H28     16.302141   21.911684   18.432130 H          1 MOL1         0.0794
      61    H29     17.212757   23.399509   18.148170 H          1 MOL1         0.0794
      62    O15     15.296675   23.668150   18.921091 O.3        1 MOL1        -0.5486
      63    H30     15.543058   24.539122   19.304765 H          1 MOL1         0.3769
      64    C19     23.490222   22.757062   21.689020 C.3        1 MOL1         0.2972
      65    H31     24.579894   22.883640   21.660036 H          1 MOL1         0.0751
      66    O16     23.108476   21.388470   21.442791 O.3        1 MOL1        -0.3740
      67    C20     22.941739   23.195706   23.069469 C.3        1 MOL1         0.1003
      68    H32     23.190335   24.257841   23.193281 H          1 MOL1         0.0783
      69    O17     23.545952   22.447221   24.133867 O.3        1 MOL1        -0.5519
      70    H33     23.115597   22.791451   24.949615 H          1 MOL1         0.3769
      71    C21     21.401931   23.061742   23.124383 C.3        1 MOL1         0.1053
      72    H34     21.147155   21.995736   23.085679 H          1 MOL1         0.0783
      73    O18     20.913653   23.631035   24.344756 O.3        1 MOL1        -0.5519
      74    H35     19.925980   23.583922   24.307383 H          1 MOL1         0.3769
      75    C22     20.727232   23.757513   21.916027 C.3        1 MOL1         0.1018
      76    H36     20.730598   24.842594   22.083703 H          1 MOL1         0.0783
      77    C23     21.423920   23.436405   20.564628 C.3        1 MOL1         0.1043
      78    H37     21.181272   22.401545   20.290867 H          1 MOL1         0.0783
      79    O19     22.860717   23.585326   20.689661 O.3        1 MOL1        -0.3740
      80    C24     20.958991   24.352241   19.410880 C.3        1 MOL1         0.0138
      81    H38     19.880700   24.217176   19.255546 H          1 MOL1         0.0794
      82    H39     21.465360   24.040350   18.487571 H          1 MOL1         0.0794
      83    O20     21.248335   25.724136   19.695726 O.3        1 MOL1        -0.5486
      84    H40     22.213410   25.766546   19.879041 H          1 MOL1         0.3769
      85    C25     24.851873   17.659883   20.764398 C.3        1 MOL1         0.2972
      86    H41     25.488426   16.840760   20.405889 H          1 MOL1         0.0751
      87    O21     23.707771   17.161205   21.487052 O.3        1 MOL1        -0.3740
      88    C26     25.661064   18.598846   21.698863 C.3        1 MOL1         0.1003
      89    H42     26.521709   18.967795   21.126038 H          1 MOL1         0.0783
      90    O22     26.129511   17.892203   22.856380 O.3        1 MOL1        -0.5519
      91    H43     26.480955   18.591203   23.451770 H          1 MOL1         0.3769
      92    C27     24.824606   19.824755   22.141538 C.3        1 MOL1         0.1053
      93    H44     24.039914   19.461815   22.812185 H          1 MOL1         0.0783
      94    O23     25.659425   20.747333   22.852296 O.3        1 MOL1        -0.5519
      95    H45     25.049561   21.350269   23.343470 H          1 MOL1         0.3769
      96    C28     24.143612   20.524325   20.933325 C.3        1 MOL1         0.1018
      97    H46     24.892181   21.087742   20.360393 H          1 MOL1         0.0783
      98    C29     23.450736   19.509493   19.986354 C.3        1 MOL1         0.1043
      99    H47     22.569919   19.096625   20.496205 H          1 MOL1         0.0783
     100    O24     24.375346   18.446716   19.653228 O.3        1 MOL1        -0.3740
     101    C30     22.978601   20.144280   18.659174 C.3        1 MOL1         0.0138
     102    H48     22.264852   20.948519   18.877798 H          1 MOL1         0.0794
     103    H49     22.446528   19.382293   18.074175 H          1 MOL1         0.0794
     104    O25     24.085027   20.658014   17.912034 O.3        1 MOL1        -0.5486
     105    H50     24.726105   19.916760   17.833723 H          1 MOL1         0.3769
     106    C31     21.373362   13.733760   21.796604 C.3        1 MOL1         0.2972
     107    H51     21.000214   12.702532   21.833081 H          1 MOL1         0.0751
     108    O26     20.298115   14.693417   21.850452 O.3        1 MOL1        -0.3740
     109    C32     22.329881   13.998849   22.986768 C.3        1 MOL1         0.1003
     110    H52     23.154002   13.277232   22.915466 H          1 MOL1         0.0783
     111    O27     21.654246   13.828856   24.241277 O.3        1 MOL1        -0.5519
     112    H53     22.290293   14.161159   24.913592 H          1 MOL1         0.3769
     113    C33     22.930493   15.421127   22.908520 C.3        1 MOL1         0.1053
     114    H54     22.116518   16.130653   23.091542 H          1 MOL1         0.0783
     115    O28     23.947255   15.578779   23.905187 O.3        1 MOL1        -0.5519
     116    H55     24.407323   16.425802   23.696912 H          1 MOL1         0.3769
     117    C34     23.532859   15.729374   21.516127 C.3        1 MOL1         0.1018
     118    H56     24.493581   15.203827   21.434479 H          1 MOL1         0.0783
     119    C35     22.589996   15.302248   20.352632 C.3        1 MOL1         0.1043
     120    H57     21.737985   15.994388   20.320454 H          1 MOL1         0.0783
     121    O29     22.116570   13.951995   20.579849 O.3        1 MOL1        -0.3740
     122    C36     23.260238   15.304698   18.959674 C.3        1 MOL1         0.0138
     123    H58     23.502086   16.333790   18.670598 H          1 MOL1         0.0794
     124    H59     22.538373   14.927317   18.223088 H          1 MOL1         0.0794
     125    O30     24.440899   14.496629   18.951345 O.3        1 MOL1        -0.5486
     126    H60     24.158929   13.596095   19.226665 H          1 MOL1         0.3769
     127    C1      18.225448   19.307239   24.259919 C.3        1 MOL1        -0.1684
     128    H1      18.629200   20.268417   24.597307 H          1 MOL1         0.0833
     129    H2      17.161489   19.502201   24.075856 H          1 MOL1         0.0833
     130    C2      18.853654   18.896768   22.902842 C.3        1 MOL1        -0.1684
     131    H3      18.139860   18.241743   22.391964 H          1 MOL1         0.0833
     132    H4      18.951379   19.782916   22.262179 H          1 MOL1         0.0833
     133    C3      20.206179   18.149513   22.951283 C.3        1 MOL1        -0.1684
     134    H5      20.443120   17.821828   21.930098 H          1 MOL1         0.0833
     135    H6      20.112947   17.224240   23.527719 H          1 MOL1         0.0833
     136    C4      21.408661   18.968890   23.470669 C.3        1 MOL1        -0.1760
     137    H7      22.295607   18.336299   23.368995 H          1 MOL1         0.0833
     138    H8      21.562308   19.825404   22.807903 H          1 MOL1         0.0833
     139    C5      21.358253   19.462108   24.934695 C.3        1 MOL1         0.1219
     140    H9      20.693583   20.330967   25.007469 H          1 MOL1         0.0790
     141    C6      20.902480   18.384212   25.952031 C.3        1 MOL1        -0.1760
     142    H10     21.077713   17.376615   25.556096 H          1 MOL1         0.0833
     143    H11     21.542647   18.456266   26.841398 H          1 MOL1         0.0833
     144    C7      19.435494   18.529338   26.437969 C.3        1 MOL1        -0.1684
     145    H12     19.293478   19.531672   26.864296 H          1 MOL1         0.0833
     146    H13     19.289670   17.829780   27.271992 H          1 MOL1         0.0833
     147    C8      18.323388   18.253554   25.392395 C.3        1 MOL1        -0.1684
     148    H14     17.366440   18.259245   25.931524 H          1 MOL1         0.0833
     149    H15     18.413173   17.238799   24.986327 H          1 MOL1         0.0833
     150    O1      22.673240   19.881129   25.283435 O.3        1 MOL1        -0.5508
     151    H16     22.902641   20.639766   24.702046 H          1 MOL1         0.3780
@<TRIPOS>BOND
    1     1     2    1
    2     1     3    1
    3     1     4    1
    4     4     5    1
    5     4     6    1
    6     6     7    1
    7     4     8    1
    8     8     9    1
    9     8    10    1
   10    10    11    1
   11     8    12    1
   12    12    13    1
   13    12    14    1
   14    14    15    1
   15     1    16    1
   16    14    16    1
   17    14    17    1
   18    17    18    1
   19    17    19    1
   20    17    20    1
   21    20    21    1
   22    22    23    1
   23    22    24    1
   24    22    25    1
   25    25    26    1
   26    25    27    1
   27    27    28    1
   28    25    29    1
   29    29    30    1
   30    29    31    1
   31    31    32    1
   32     3    33    1
   33    29    33    1
   34    33    34    1
   35    33    35    1
   36    35    36    1
   37    22    37    1
   38    35    37    1
   39    35    38    1
   40    38    39    1
   41    38    40    1
   42    38    41    1
   43    41    42    1
   44    43    44    1
   45    43    45    1
   46    43    46    1
   47    46    47    1
   48    46    48    1
   49    48    49    1
   50    46    50    1
   51    50    51    1
   52    50    52    1
   53    52    53    1
   54    24    54    1
   55    50    54    1
   56    54    55    1
   57    54    56    1
   58    56    57    1
   59    43    58    1
   60    56    58    1
   61    56    59    1
   62    59    60    1
   63    59    61    1
   64    59    62    1
   65    62    63    1
   66    64    65    1
   67    64    66    1
   68    64    67    1
   69    67    68    1
   70    67    69    1
   71    69    70    1
   72    67    71    1
   73    71    72    1
   74    71    73    1
   75    73    74    1
   76    45    75    1
   77    71    75    1
   78    75    76    1
   79    75    77    1
   80    77    78    1
   81    64    79    1
   82    77    79    1
   83    77    80    1
   84    80    81    1
   85    80    82    1
   86    80    83    1
   87    83    84    1
   88    85    86    1
   89    85    87    1
   90    85    88    1
   91    88    89    1
   92    88    90    1
   93    90    91    1
   94    88    92    1
   95    92    93    1
   96    92    94    1
   97    94    95    1
   98    66    96    1
   99    92    96    1
  100    96    97    1
  101    96    98    1
  102    98    99    1
  103    85   100    1
  104    98   100    1
  105    98   101    1
  106   101   102    1
  107   101   103    1
  108   101   104    1
  109   104   105    1
  110   106   107    1
  111    12   108    1
  112   106   108    1
  113   106   109    1
  114   109   110    1
  115   109   111    1
  116   111   112    1
  117   109   113    1
  118   113   114    1
  119   113   115    1
  120   115   116    1
  121    87   117    1
  122   113   117    1
  123   117   118    1
  124   117   119    1
  125   119   120    1
  126   106   121    1
  127   119   121    1
  128   119   122    1
  129   122   123    1
  130   122   124    1
  131   122   125    1
  132   125   126    1
  133   127   128    1
  134   127   129    1
  135   127   130    1
  136   130   131    1
  137   130   132    1
  138   130   133    1
  139   133   134    1
  140   133   135    1
  141   133   136    1
  142   136   137    1
  143   136   138    1
  144   136   139    1
  145   139   140    1
  146   139   141    1
  147   141   142    1
  148   141   143    1
  149   141   144    1
  150   144   145    1
  151   144   146    1
  152   127   147    1
  153   144   147    1
  154   147   148    1
  155   147   149    1
  156   139   150    1
  157   150   151    1
@<TRIPOS>SUBSTRUCTURE
       1 MOL1            1 RESIDUE      1      MOL     
       2 MOL1          151 RESIDUE      1      MOL     
@<SCITEGIC>MOL_PROPERTY
VM2 Rank
SciTegic.value.IntegerValue
7

@<SCITEGIC>MOL_PROPERTY
Conf_Id
SciTegic.value.IntegerValue
27515

@<SCITEGIC>MOL_PROPERTY
Probability
SciTegic.value.DoubleValue
1.14

@<SCITEGIC>MOL_PROPERTY
Sum Probability
SciTegic.value.DoubleValue
11.14

@<SCITEGIC>MOL_PROPERTY
Delta G
SciTegic.value.DoubleValue
0.354

@<SCITEGIC>MOL_PROPERTY
G
SciTegic.value.DoubleValue
581.013

@<SCITEGIC>MOL_PROPERTY
E
SciTegic.value.DoubleValue
379.516

@<SCITEGIC>MOL_PROPERTY
-TS
SciTegic.value.DoubleValue
201.497

@<SCITEGIC>MOL_PROPERTY
U+W
SciTegic.value.DoubleValue
246.274

@<SCITEGIC>MOL_PROPERTY
U
SciTegic.value.DoubleValue
283.578

@<SCITEGIC>MOL_PROPERTY
W
SciTegic.value.DoubleValue
-37.304

@<SCITEGIC>MOL_PROPERTY
W(PB)
SciTegic.value.DoubleValue
-43.492

@<SCITEGIC>MOL_PROPERTY
W(SA)
SciTegic.value.DoubleValue
6.187

@<SCITEGIC>MOL_PROPERTY
Valence
SciTegic.value.DoubleValue
157.923

@<SCITEGIC>MOL_PROPERTY
Coulomb
SciTegic.value.DoubleValue
149.389

@<SCITEGIC>MOL_PROPERTY
VdW
SciTegic.value.DoubleValue
-23.734

@<SCITEGIC>MOL_PROPERTY
VdW6
SciTegic.value.DoubleValue
-178.736

@<SCITEGIC>MOL_PROPERTY
VdW12
SciTegic.value.DoubleValue
155.002

@<SCITEGIC>MOL_PROPERTY
Bond
SciTegic.value.DoubleValue
4.506

@<SCITEGIC>MOL_PROPERTY
Angle
SciTegic.value.DoubleValue
13.680

@<SCITEGIC>MOL_PROPERTY
Pdih
SciTegic.value.DoubleValue
139.736

@<SCITEGIC>MOL_PROPERTY
Idih
SciTegic.value.DoubleValue
0.000

@<SCITEGIC>MOL_PROPERTY
Tether
SciTegic.value.DoubleValue
0.000

@<TRIPOS>MOLECULE
CD_guest-s17_vm2_single.mol2 : vm2 host+ligand conformer 8
         151         157           2
SMALL
USER_CHARGES
 
@<TRIPOS>ATOM
       1    C1      16.256186   15.197796   21.567156 C.3        1 MOL1         0.2972
       2    H1      15.164072   15.094079   21.535983 H          1 MOL1         0.0751
       3    O1      16.669004   16.554048   21.296639 O.3        1 MOL1        -0.3740
       4    C2      16.784515   14.772017   22.958405 C.3        1 MOL1         0.1003
       5    H2      16.525601   13.714484   23.098641 H          1 MOL1         0.0783
       6    O2      16.178202   15.544051   24.003389 O.3        1 MOL1        -0.5519
       7    H3      16.722013   15.350801   24.799515 H          1 MOL1         0.3769
       8    C3      18.323818   14.893802   23.016454 C.3        1 MOL1         0.1053
       9    H4      18.588169   15.955062   22.932238 H          1 MOL1         0.0783
      10    O3      18.808279   14.362596   24.256072 O.3        1 MOL1        -0.5519
      11    H5      19.789257   14.282540   24.164975 H          1 MOL1         0.3769
      12    C4      18.992230   14.145989   21.839324 C.3        1 MOL1         0.1018
      13    H6      18.958282   13.068194   22.046765 H          1 MOL1         0.0783
      14    C5      18.316975   14.448110   20.471147 C.3        1 MOL1         0.1043
      15    H7      18.589365   15.469623   20.175471 H          1 MOL1         0.0783
      16    O4      16.874410   14.340045   20.584935 O.3        1 MOL1        -0.3740
      17    C6      18.762347   13.493172   19.341272 C.3        1 MOL1         0.0138
      18    H8      19.836331   13.624072   19.158767 H          1 MOL1         0.0794
      19    H9      18.239309   13.772702   18.416971 H          1 MOL1         0.0794
      20    O5      18.480690   12.131335   19.677302 O.3        1 MOL1        -0.5486
      21    H10     17.515640   12.087866   19.859886 H          1 MOL1         0.3769
      22    C7      15.027407   20.248284   20.313090 C.3        1 MOL1         0.2972
      23    H11     14.430194   21.064874   19.886863 H          1 MOL1         0.0751
      24    O6      16.204939   20.742602   20.981428 O.3        1 MOL1        -0.3740
      25    C8      14.195193   19.426257   21.332089 C.3        1 MOL1         0.1003
      26    H12     13.334483   19.008602   20.794448 H          1 MOL1         0.0783
      27    O7      13.718716   20.278318   22.386757 O.3        1 MOL1        -0.5519
      28    H13     14.509327   20.699271   22.807758 H          1 MOL1         0.3769
      29    C9      15.032813   18.240773   21.884841 C.3        1 MOL1         0.1053
      30    H14     15.847070   18.663676   22.486166 H          1 MOL1         0.0783
      31    O8      14.224031   17.381043   22.697665 O.3        1 MOL1        -0.5519
      32    H15     14.848575   16.800649   23.198558 H          1 MOL1         0.3769
      33    C10     15.661266   17.413418   20.729528 C.3        1 MOL1         0.1018
      34    H16     14.875950   16.834681   20.224728 H          1 MOL1         0.0783
      35    C11     16.364202   18.302833   19.672839 C.3        1 MOL1         0.1043
      36    H17     17.280205   18.724382   20.108114 H          1 MOL1         0.0783
      37    O9      15.457399   19.355432   19.265357 O.3        1 MOL1        -0.3740
      38    C12     16.742343   17.508207   18.405346 C.3        1 MOL1         0.0138
      39    H18     15.826881   17.149565   17.915970 H          1 MOL1         0.0794
      40    H19     17.333573   16.628804   18.688792 H          1 MOL1         0.0794
      41    O10     17.495804   18.334941   17.516391 O.3        1 MOL1        -0.5486
      42    H20     16.963557   19.151285   17.388125 H          1 MOL1         0.3769
      43    C13     18.272783   24.184199   21.877527 C.3        1 MOL1         0.2972
      44    H21     18.632656   25.201440   22.076275 H          1 MOL1         0.0751
      45    O11     19.354197   23.230883   21.815112 O.3        1 MOL1        -0.3740
      46    C14     17.291758   23.731592   22.989033 C.3        1 MOL1         0.1003
      47    H22     16.422808   24.402196   22.958951 H          1 MOL1         0.0783
      48    O12     17.905681   23.801965   24.287929 O.3        1 MOL1        -0.5519
      49    H23     17.836017   24.731184   24.594784 H          1 MOL1         0.3769
      50    C15     16.792788   22.294949   22.708223 C.3        1 MOL1         0.1053
      51    H24     17.647661   21.617466   22.809733 H          1 MOL1         0.0783
      52    O13     15.786817   21.947378   23.664545 O.3        1 MOL1        -0.5519
      53    H25     16.169695   22.199494   24.533707 H          1 MOL1         0.3769
      54    C16     16.231116   22.152854   21.270721 C.3        1 MOL1         0.1018
      55    H26     15.226081   22.594980   21.247617 H          1 MOL1         0.0783
      56    C17     17.135342   22.820227   20.193918 C.3        1 MOL1         0.1043
      57    H27     18.020685   22.186764   20.048721 H          1 MOL1         0.0783
      58    O14     17.551335   24.138425   20.629128 O.3        1 MOL1        -0.3740
      59    C18     16.445814   22.976815   18.820130 C.3        1 MOL1         0.0138
      60    H28     16.232788   21.981200   18.409438 H          1 MOL1         0.0794
      61    H29     17.142361   23.471336   18.129925 H          1 MOL1         0.0794
      62    O15     15.237105   23.733671   18.931388 O.3        1 MOL1        -0.5486
      63    H30     15.489646   24.599230   19.323307 H          1 MOL1         0.3769
      64    C19     23.465200   22.788331   21.641997 C.3        1 MOL1         0.2972
      65    H31     24.551513   22.935779   21.592623 H          1 MOL1         0.0751
      66    O16     23.110054   21.393480   21.523500 O.3        1 MOL1        -0.3740
      67    C20     22.919203   23.342973   22.981369 C.3        1 MOL1         0.1003
      68    H32     23.122658   24.421652   22.996684 H          1 MOL1         0.0783
      69    O17     23.569340   22.730921   24.103158 O.3        1 MOL1        -0.5519
      70    H33     23.090423   23.066344   24.891900 H          1 MOL1         0.3769
      71    C21     21.387974   23.148374   23.058222 C.3        1 MOL1         0.1053
      72    H34     21.178390   22.070969   23.058967 H          1 MOL1         0.0783
      73    O18     20.873048   23.748279   24.253317 O.3        1 MOL1        -0.5519
      74    H35     19.889190   23.656577   24.206479 H          1 MOL1         0.3769
      75    C22     20.692137   23.761613   21.819599 C.3        1 MOL1         0.1018
      76    H36     20.707010   24.856274   21.903775 H          1 MOL1         0.0783
      77    C23     21.370230   23.332379   20.488816 C.3        1 MOL1         0.1043
      78    H37     21.137344   22.274566   20.309014 H          1 MOL1         0.0783
      79    O19     22.807785   23.508847   20.577696 O.3        1 MOL1        -0.3740
      80    C24     20.876916   24.142929   19.269999 C.3        1 MOL1         0.0138
      81    H38     19.796634   23.990763   19.148831 H          1 MOL1         0.0794
      82    H39     21.367114   23.755315   18.366902 H          1 MOL1         0.0794
      83    O20     21.163497   25.535360   19.430270 O.3        1 MOL1        -0.5486
      84    H40     22.131216   25.596953   19.592959 H          1 MOL1         0.3769
      85    C25     24.871949   17.654384   20.886946 C.3        1 MOL1         0.2972
      86    H41     25.556172   16.858085   20.567635 H          1 MOL1         0.0751
      87    O21     23.649807   17.118039   21.430322 O.3        1 MOL1        -0.3740
      88    C26     25.545112   18.532849   21.973377 C.3        1 MOL1         0.1003
      89    H42     26.476220   18.926248   21.545240 H          1 MOL1         0.0783
      90    O22     25.850632   17.762572   23.145320 O.3        1 MOL1        -0.5519
      91    H43     26.135217   18.427904   23.811404 H          1 MOL1         0.3769
      92    C27     24.653929   19.737273   22.360687 C.3        1 MOL1         0.1053
      93    H44     23.769110   19.349100   22.879722 H          1 MOL1         0.0783
      94    O23     25.387981   20.607887   23.229963 O.3        1 MOL1        -0.5519
      95    H45     24.750253   21.292644   23.552492 H          1 MOL1         0.3769
      96    C28     24.171093   20.510659   21.107481 C.3        1 MOL1         0.1018
      97    H46     25.013669   21.062362   20.669671 H          1 MOL1         0.0783
      98    C29     23.588202   19.558568   20.031427 C.3        1 MOL1         0.1043
      99    H47     22.646058   19.136236   20.404935 H          1 MOL1         0.0783
     100    O24     24.536808   18.497603   19.764711 O.3        1 MOL1        -0.3740
     101    C30     23.298840   20.268573   18.689932 C.3        1 MOL1         0.0138
     102    H48     22.577270   21.078144   18.858354 H          1 MOL1         0.0794
     103    H49     22.832690   19.549010   18.003779 H          1 MOL1         0.0794
     104    O25     24.500054   20.792394   18.116203 O.3        1 MOL1        -0.5486
     105    H50     25.132206   20.040320   18.078572 H          1 MOL1         0.3769
     106    C31     21.386716   13.669074   21.628519 C.3        1 MOL1         0.2972
     107    H51     20.991677   12.645335   21.615388 H          1 MOL1         0.0751
     108    O26     20.340300   14.647298   21.786860 O.3        1 MOL1        -0.3740
     109    C32     22.393404   13.847275   22.793051 C.3        1 MOL1         0.1003
     110    H52     23.212573   13.133782   22.635185 H          1 MOL1         0.0783
     111    O27     21.770979   13.588044   24.059598 O.3        1 MOL1        -0.5519
     112    H53     22.437854   13.866458   24.726604 H          1 MOL1         0.3769
     113    C33     22.990603   15.273698   22.790865 C.3        1 MOL1         0.1053
     114    H54     22.188958   15.966939   23.066920 H          1 MOL1         0.0783
     115    O28     24.054930   15.359033   23.746531 O.3        1 MOL1        -0.5519
     116    H55     24.514166   16.219277   23.581519 H          1 MOL1         0.3769
     117    C34     23.521935   15.682752   21.395524 C.3        1 MOL1         0.1018
     118    H56     24.488715   15.185790   21.240360 H          1 MOL1         0.0783
     119    C35     22.551396   15.314854   20.237994 C.3        1 MOL1         0.1043
     120    H57     21.697520   16.004991   20.266026 H          1 MOL1         0.0783
     121    O29     22.086791   13.952498   20.399512 O.3        1 MOL1        -0.3740
     122    C36     23.194732   15.414750   18.836633 C.3        1 MOL1         0.0138
     123    H58     23.468996   16.457942   18.636832 H          1 MOL1         0.0794
     124    H59     22.447468   15.126548   18.085304 H          1 MOL1         0.0794
     125    O30     24.346916   14.572414   18.736521 O.3        1 MOL1        -0.5486
     126    H60     24.042417   13.664891   18.960523 H          1 MOL1         0.3769
     127    C1      19.096325   18.873981   23.124107 C.3        1 MOL1        -0.1684
     128    H1      19.012208   19.962080   23.064426 H          1 MOL1         0.0833
     129    H2      18.597798   18.510299   22.215718 H          1 MOL1         0.0833
     130    C2      20.584157   18.450559   23.032595 C.3        1 MOL1        -0.1684
     131    H3      20.610780   17.440065   22.606372 H          1 MOL1         0.0833
     132    H4      21.094816   19.093148   22.303341 H          1 MOL1         0.0833
     133    C3      21.395378   18.430497   24.353632 C.3        1 MOL1        -0.1684
     134    H5      22.380352   17.999973   24.133080 H          1 MOL1         0.0833
     135    H6      20.946226   17.733104   25.069522 H          1 MOL1         0.0833
     136    C4      21.639011   19.808053   25.021029 C.3        1 MOL1        -0.1760
     137    H7      22.298090   19.648291   25.884490 H          1 MOL1         0.0833
     138    H8      22.204360   20.438309   24.326795 H          1 MOL1         0.0833
     139    C5      20.394097   20.591989   25.503478 C.3        1 MOL1         0.1219
     140    H9      19.880256   21.028726   24.640275 H          1 MOL1         0.0790
     141    C6      19.374820   19.745971   26.304747 C.3        1 MOL1        -0.1760
     142    H10     19.854175   18.854357   26.725856 H          1 MOL1         0.0833
     143    H11     19.039132   20.331629   27.170936 H          1 MOL1         0.0833
     144    C7      18.108710   19.352900   25.500052 C.3        1 MOL1        -0.1684
     145    H12     17.631947   20.258619   25.102826 H          1 MOL1         0.0833
     146    H13     17.384175   18.921252   26.203559 H          1 MOL1         0.0833
     147    C8      18.317214   18.332764   24.352620 C.3        1 MOL1        -0.1684
     148    H14     17.320342   18.034525   24.008311 H          1 MOL1         0.0833
     149    H15     18.768939   17.410431   24.737437 H          1 MOL1         0.0833
     150    O1      20.847153   21.661410   26.326305 O.3        1 MOL1        -0.5508
     151    H16     21.023698   22.419933   25.725035 H          1 MOL1         0.3780
@<TRIPOS>BOND
    1     1     2    1
    2     1     3    1
    3     1     4    1
    4     4     5    1
    5     4     6    1
    6     6     7    1
    7     4     8    1
    8     8     9    1
    9     8    10    1
   10    10    11    1
   11     8    12    1
   12    12    13    1
   13    12    14    1
   14    14    15    1
   15     1    16    1
   16    14    16    1
   17    14    17    1
   18    17    18    1
   19    17    19    1
   20    17    20    1
   21    20    21    1
   22    22    23    1
   23    22    24    1
   24    22    25    1
   25    25    26    1
   26    25    27    1
   27    27    28    1
   28    25    29    1
   29    29    30    1
   30    29    31    1
   31    31    32    1
   32     3    33    1
   33    29    33    1
   34    33    34    1
   35    33    35    1
   36    35    36    1
   37    22    37    1
   38    35    37    1
   39    35    38    1
   40    38    39    1
   41    38    40    1
   42    38    41    1
   43    41    42    1
   44    43    44    1
   45    43    45    1
   46    43    46    1
   47    46    47    1
   48    46    48    1
   49    48    49    1
   50    46    50    1
   51    50    51    1
   52    50    52    1
   53    52    53    1
   54    24    54    1
   55    50    54    1
   56    54    55    1
   57    54    56    1
   58    56    57    1
   59    43    58    1
   60    56    58    1
   61    56    59    1
   62    59    60    1
   63    59    61    1
   64    59    62    1
   65    62    63    1
   66    64    65    1
   67    64    66    1
   68    64    67    1
   69    67    68    1
   70    67    69    1
   71    69    70    1
   72    67    71    1
   73    71    72    1
   74    71    73    1
   75    73    74    1
   76    45    75    1
   77    71    75    1
   78    75    76    1
   79    75    77    1
   80    77    78    1
   81    64    79    1
   82    77    79    1
   83    77    80    1
   84    80    81    1
   85    80    82    1
   86    80    83    1
   87    83    84    1
   88    85    86    1
   89    85    87    1
   90    85    88    1
   91    88    89    1
   92    88    90    1
   93    90    91    1
   94    88    92    1
   95    92    93    1
   96    92    94    1
   97    94    95    1
   98    66    96    1
   99    92    96    1
  100    96    97    1
  101    96    98    1
  102    98    99    1
  103    85   100    1
  104    98   100    1
  105    98   101    1
  106   101   102    1
  107   101   103    1
  108   101   104    1
  109   104   105    1
  110   106   107    1
  111    12   108    1
  112   106   108    1
  113   106   109    1
  114   109   110    1
  115   109   111    1
  116   111   112    1
  117   109   113    1
  118   113   114    1
  119   113   115    1
  120   115   116    1
  121    87   117    1
  122   113   117    1
  123   117   118    1
  124   117   119    1
  125   119   120    1
  126   106   121    1
  127   119   121    1
  128   119   122    1
  129   122   123    1
  130   122   124    1
  131   122   125    1
  132   125   126    1
  133   127   128    1
  134   127   129    1
  135   127   130    1
  136   130   131    1
  137   130   132    1
  138   130   133    1
  139   133   134    1
  140   133   135    1
  141   133   136    1
  142   136   137    1
  143   136   138    1
  144   136   139    1
  145   139   140    1
  146   139   141    1
  147   141   142    1
  148   141   143    1
  149   141   144    1
  150   144   145    1
  151   144   146    1
  152   127   147    1
  153   144   147    1
  154   147   148    1
  155   147   149    1
  156   139   150    1
  157   150   151    1
@<TRIPOS>SUBSTRUCTURE
       1 MOL1            1 RESIDUE      1      MOL     
       2 MOL1          151 RESIDUE      1      MOL     
@<SCITEGIC>MOL_PROPERTY
VM2 Rank
SciTegic.value.IntegerValue
8

@<SCITEGIC>MOL_PROPERTY
Conf_Id
SciTegic.value.IntegerValue
27323

@<SCITEGIC>MOL_PROPERTY
Probability
SciTegic.value.DoubleValue
1.07

@<SCITEGIC>MOL_PROPERTY
Sum Probability
SciTegic.value.DoubleValue
12.21

@<SCITEGIC>MOL_PROPERTY
Delta G
SciTegic.value.DoubleValue
0.390

@<SCITEGIC>MOL_PROPERTY
G
SciTegic.value.DoubleValue
581.049

@<SCITEGIC>MOL_PROPERTY
E
SciTegic.value.DoubleValue
379.257

@<SCITEGIC>MOL_PROPERTY
-TS
SciTegic.value.DoubleValue
201.792

@<SCITEGIC>MOL_PROPERTY
U+W
SciTegic.value.DoubleValue
246.015

@<SCITEGIC>MOL_PROPERTY
U
SciTegic.value.DoubleValue
284.134

@<SCITEGIC>MOL_PROPERTY
W
SciTegic.value.DoubleValue
-38.119

@<SCITEGIC>MOL_PROPERTY
W(PB)
SciTegic.value.DoubleValue
-44.394

@<SCITEGIC>MOL_PROPERTY
W(SA)
SciTegic.value.DoubleValue
6.275

@<SCITEGIC>MOL_PROPERTY
Valence
SciTegic.value.DoubleValue
159.190

@<SCITEGIC>MOL_PROPERTY
Coulomb
SciTegic.value.DoubleValue
148.059

@<SCITEGIC>MOL_PROPERTY
VdW
SciTegic.value.DoubleValue
-23.115

@<SCITEGIC>MOL_PROPERTY
VdW6
SciTegic.value.DoubleValue
-177.838

@<SCITEGIC>MOL_PROPERTY
VdW12
SciTegic.value.DoubleValue
154.723

@<SCITEGIC>MOL_PROPERTY
Bond
SciTegic.value.DoubleValue
4.479

@<SCITEGIC>MOL_PROPERTY
Angle
SciTegic.value.DoubleValue
13.131

@<SCITEGIC>MOL_PROPERTY
Pdih
SciTegic.value.DoubleValue
141.580

@<SCITEGIC>MOL_PROPERTY
Idih
SciTegic.value.DoubleValue
0.000

@<SCITEGIC>MOL_PROPERTY
Tether
SciTegic.value.DoubleValue
0.000

