@<TRIPOS>MOLECULE
CD_guest-s14_vm2_single.mol2 : vm2 host+ligand conformer 1
         152         157           2
SMALL
USER_CHARGES
 
@<TRIPOS>ATOM
       1    C1      16.281035   15.118201   21.263138 C.3        1 MOL1         0.2972
       2    H1      15.237629   14.836518   21.073743 H          1 MOL1         0.0751
       3    O1      16.435434   16.542879   21.409727 O.3        1 MOL1        -0.3740
       4    C2      16.782165   14.451605   22.568424 C.3        1 MOL1         0.1003
       5    H2      16.692612   13.365278   22.438009 H          1 MOL1         0.0783
       6    O2      15.984214   14.857912   23.692018 O.3        1 MOL1        -0.5519
       7    H3      15.651542   15.771370   23.504160 H          1 MOL1         0.3769
       8    C3      18.273159   14.778951   22.820489 C.3        1 MOL1         0.1053
       9    H4      18.350670   15.852537   23.032230 H          1 MOL1         0.0783
      10    O3      18.727438   14.028293   23.951469 O.3        1 MOL1        -0.5519
      11    H5      17.987225   14.080319   24.598265 H          1 MOL1         0.3769
      12    C4      19.134052   14.467652   21.566046 C.3        1 MOL1         0.1018
      13    H6      19.217499   13.380309   21.435216 H          1 MOL1         0.0783
      14    C5      18.521703   15.071069   20.275476 C.3        1 MOL1         0.1043
      15    H7      18.613399   16.164342   20.311406 H          1 MOL1         0.0783
      16    O4      17.129687   14.678164   20.181842 O.3        1 MOL1        -0.3740
      17    C6      19.237409   14.560708   19.007054 C.3        1 MOL1         0.0138
      18    H8      19.047788   13.485234   18.890743 H          1 MOL1         0.0794
      19    H9      20.320184   14.695631   19.122605 H          1 MOL1         0.0794
      20    O5      18.784271   15.279263   17.858684 O.3        1 MOL1        -0.5486
      21    H10     17.808267   15.179389   17.831521 H          1 MOL1         0.3769
      22    C7      14.610612   20.196951   20.784456 C.3        1 MOL1         0.2972
      23    H11     13.949126   21.034162   20.527098 H          1 MOL1         0.0751
      24    O6      15.934965   20.640123   21.144620 O.3        1 MOL1        -0.3740
      25    C8      14.043542   19.390372   21.978505 C.3        1 MOL1         0.1003
      26    H12     13.075153   18.975273   21.670363 H          1 MOL1         0.0783
      27    O7      13.854019   20.228568   23.129360 O.3        1 MOL1        -0.5519
      28    H13     14.660675   20.796885   23.221134 H          1 MOL1         0.3769
      29    C9      14.987824   18.212541   22.315243 C.3        1 MOL1         0.1053
      30    H14     15.930861   18.637554   22.679153 H          1 MOL1         0.0783
      31    O8      14.402166   17.396903   23.334083 O.3        1 MOL1        -0.5519
      32    H15     14.035475   18.031873   23.989371 H          1 MOL1         0.3769
      33    C10     15.297965   17.355086   21.062128 C.3        1 MOL1         0.1018
      34    H16     14.413266   16.750977   20.821225 H          1 MOL1         0.0783
      35    C11     15.682916   18.215014   19.825801 C.3        1 MOL1         0.1043
      36    H17     16.689743   18.625541   19.970450 H          1 MOL1         0.0783
      37    O9      14.723362   19.288832   19.669409 O.3        1 MOL1        -0.3740
      38    C12     15.679064   17.403448   18.515127 C.3        1 MOL1         0.0138
      39    H18     14.668885   17.014590   18.329847 H          1 MOL1         0.0794
      40    H19     16.355057   16.547071   18.617741 H          1 MOL1         0.0794
      41    O10     16.107089   18.228572   17.430521 O.3        1 MOL1        -0.5486
      42    H20     15.530275   19.023636   17.451361 H          1 MOL1         0.3769
      43    C13     18.386859   23.966865   21.246926 C.3        1 MOL1         0.2972
      44    H21     18.827378   24.971895   21.216657 H          1 MOL1         0.0751
      45    O11     19.407441   22.944371   21.233599 O.3        1 MOL1        -0.3740
      46    C14     17.476734   23.792390   22.493593 C.3        1 MOL1         0.1003
      47    H22     16.651943   24.509820   22.392503 H          1 MOL1         0.0783
      48    O12     18.172313   24.063899   23.718833 O.3        1 MOL1        -0.5519
      49    H23     18.880813   23.377304   23.804484 H          1 MOL1         0.3769
      50    C15     16.868608   22.370616   22.514294 C.3        1 MOL1         0.1053
      51    H24     17.686122   21.649726   22.642006 H          1 MOL1         0.0783
      52    O13     15.949771   22.256917   23.605422 O.3        1 MOL1        -0.5519
      53    H25     16.399649   22.688787   24.365505 H          1 MOL1         0.3769
      54    C16     16.145019   22.062290   21.180197 C.3        1 MOL1         0.1018
      55    H26     15.198718   22.619083   21.165705 H          1 MOL1         0.0783
      56    C17     16.996440   22.434655   19.933749 C.3        1 MOL1         0.1043
      57    H27     17.811193   21.704589   19.840220 H          1 MOL1         0.0783
      58    O14     17.550694   23.765259   20.087732 O.3        1 MOL1        -0.3740
      59    C18     16.192015   22.411463   18.614999 C.3        1 MOL1         0.0138
      60    H28     15.846352   21.387486   18.423580 H          1 MOL1         0.0794
      61    H29     16.859989   22.689654   17.788892 H          1 MOL1         0.0794
      62    O15     15.076671   23.305604   18.674506 O.3        1 MOL1        -0.5486
      63    H30     15.447337   24.194405   18.872055 H          1 MOL1         0.3769
      64    C19     23.463238   22.383286   22.035273 C.3        1 MOL1         0.2972
      65    H31     24.500955   22.510750   22.366927 H          1 MOL1         0.0751
      66    O16     23.319775   21.245472   21.159136 O.3        1 MOL1        -0.3740
      67    C20     22.514952   22.211807   23.254086 C.3        1 MOL1         0.1003
      68    H32     22.612509   23.117332   23.867080 H          1 MOL1         0.0783
      69    O17     22.854010   21.067363   24.053682 O.3        1 MOL1        -0.5519
      70    H33     23.820474   20.908418   23.936507 H          1 MOL1         0.3769
      71    C21     21.045707   22.100648   22.790448 C.3        1 MOL1         0.1053
      72    H34     20.944795   21.174270   22.213961 H          1 MOL1         0.0783
      73    O18     20.202153   22.050691   23.944601 O.3        1 MOL1        -0.5519
      74    H35     20.664415   21.431102   24.552744 H          1 MOL1         0.3769
      75    C22     20.656945   23.282687   21.869596 C.3        1 MOL1         0.1018
      76    H36     20.573075   24.191098   22.480854 H          1 MOL1         0.0783
      77    C23     21.704494   23.503604   20.743173 C.3        1 MOL1         0.1043
      78    H37     21.638968   22.663658   20.038477 H          1 MOL1         0.0783
      79    O19     23.036204   23.558899   21.312856 O.3        1 MOL1        -0.3740
      80    C24     21.479716   24.807065   19.944342 C.3        1 MOL1         0.0138
      81    H38     20.522585   24.738604   19.410311 H          1 MOL1         0.0794
      82    H39     22.269907   24.898375   19.187129 H          1 MOL1         0.0794
      83    O20     21.482433   25.949455   20.805661 O.3        1 MOL1        -0.5486
      84    H40     22.350097   25.943899   21.267878 H          1 MOL1         0.3769
      85    C25     25.195785   17.634905   20.531754 C.3        1 MOL1         0.2972
      86    H41     25.820203   16.775626   20.255166 H          1 MOL1         0.0751
      87    O21     23.855171   17.225578   20.883461 O.3        1 MOL1        -0.3740
      88    C26     25.834015   18.451167   21.684306 C.3        1 MOL1         0.1003
      89    H42     26.763058   18.884685   21.291315 H          1 MOL1         0.0783
      90    O22     26.159036   17.638179   22.820735 O.3        1 MOL1        -0.5519
      91    H43     25.299747   17.346107   23.216347 H          1 MOL1         0.3769
      92    C27     24.901195   19.617950   22.086585 C.3        1 MOL1         0.1053
      93    H44     23.978763   19.188498   22.499770 H          1 MOL1         0.0783
      94    O23     25.562952   20.401779   23.086380 O.3        1 MOL1        -0.5519
      95    H45     26.040095   19.748131   23.647221 H          1 MOL1         0.3769
      96    C28     24.512899   20.489382   20.854263 C.3        1 MOL1         0.1018
      97    H46     25.347453   21.157108   20.602419 H          1 MOL1         0.0783
      98    C29     24.152055   19.643065   19.598711 C.3        1 MOL1         0.1043
      99    H47     23.139356   19.241806   19.724267 H          1 MOL1         0.0783
     100    O24     25.093407   18.552761   19.423025 O.3        1 MOL1        -0.3740
     101    C30     24.166192   20.490330   18.310107 C.3        1 MOL1         0.0138
     102    H48     25.190687   20.832529   18.111480 H          1 MOL1         0.0794
     103    H49     23.537925   21.379506   18.455447 H          1 MOL1         0.0794
     104    O25     23.671411   19.718717   17.213999 O.3        1 MOL1        -0.5486
     105    H50     24.184987   18.880180   17.217212 H          1 MOL1         0.3769
     106    C31     21.430576   14.245407   22.361887 C.3        1 MOL1         0.2972
     107    H51     20.989488   13.340581   22.799524 H          1 MOL1         0.0751
     108    O26     20.428879   15.075903   21.739303 O.3        1 MOL1        -0.3740
     109    C32     22.153944   15.064839   23.457545 C.3        1 MOL1         0.1003
     110    H52     22.941834   14.422812   23.872512 H          1 MOL1         0.0783
     111    O27     21.253464   15.444935   24.511453 O.3        1 MOL1        -0.5519
     112    H53     20.426992   14.916935   24.391334 H          1 MOL1         0.3769
     113    C33     22.824424   16.320824   22.856613 C.3        1 MOL1         0.1053
     114    H54     22.033388   17.004588   22.531227 H          1 MOL1         0.0783
     115    O28     23.603783   16.945807   23.878690 O.3        1 MOL1        -0.5519
     116    H55     23.010138   16.964597   24.663222 H          1 MOL1         0.3769
     117    C34     23.695157   15.992311   21.614451 C.3        1 MOL1         0.1018
     118    H56     24.656188   15.577646   21.945945 H          1 MOL1         0.0783
     119    C35     22.997821   15.002241   20.638972 C.3        1 MOL1         0.1043
     120    H57     22.207877   15.548450   20.107217 H          1 MOL1         0.0783
     121    O29     22.412215   13.892652   21.364826 O.3        1 MOL1        -0.3740
     122    C36     23.955692   14.420630   19.575878 C.3        1 MOL1         0.0138
     123    H58     24.331296   15.238926   18.947217 H          1 MOL1         0.0794
     124    H59     23.390137   13.740867   18.924552 H          1 MOL1         0.0794
     125    O30     25.047640   13.728228   20.187729 O.3        1 MOL1        -0.5486
     126    H60     24.648325   13.035894   20.760375 H          1 MOL1         0.3769
     127    C1      19.989890   19.147105   19.287906 C.3        1 MOL1        -0.2400
     128    H1      19.767610   20.221972   19.282373 H          1 MOL1         0.0971
     129    H2      20.806061   18.968896   18.575253 H          1 MOL1         0.0971
     130    H3      19.103655   18.609264   18.924725 H          1 MOL1         0.0971
     131    C2      20.388416   18.672403   20.700403 C.3        1 MOL1        -0.1385
     132    H4      21.294767   19.201308   21.022990 H          1 MOL1         0.0960
     133    H5      20.642808   17.604620   20.666803 H          1 MOL1         0.0960
     134    C3      19.259187   18.911449   21.724935 C.3        1 MOL1        -0.1409
     135    H6      18.962690   19.968263   21.707102 H          1 MOL1         0.0960
     136    H7      18.376107   18.330460   21.437471 H          1 MOL1         0.0960
     137    C4      19.688818   18.515963   23.153274 C.3        1 MOL1        -0.1409
     138    H8      20.574443   19.094733   23.449985 H          1 MOL1         0.0960
     139    H9      19.983079   17.460613   23.163541 H          1 MOL1         0.0960
     140    C5      18.557493   18.727320   24.180067 C.3        1 MOL1        -0.1409
     141    H10     18.228886   19.775888   24.162685 H          1 MOL1         0.0960
     142    H11     17.693200   18.111785   23.900170 H          1 MOL1         0.0960
     143    C6      19.006796   18.345352   25.605336 C.3        1 MOL1        -0.1450
     144    H12     19.863700   18.964868   25.901811 H          1 MOL1         0.0960
     145    H13     19.345377   17.300382   25.617469 H          1 MOL1         0.0960
     146    C7      17.862951   18.525765   26.617341 C.3        1 MOL1         0.0172
     147    H14     17.536864   19.569423   26.622157 H          1 MOL1         0.0934
     148    H15     17.013914   17.900667   26.327277 H          1 MOL1         0.0934
     149    N1      18.259368   18.150804   28.030402 N.4        1 MOL1        -0.5956
     150    H16     18.554680   17.171169   28.094116 H          1 MOL1         0.3624
     151    H17     17.483212   18.274554   28.689206 H          1 MOL1         0.3624
     152    H18     19.037554   18.724139   28.371587 H          1 MOL1         0.3624
@<TRIPOS>BOND
    1     1     2    1
    2     1     3    1
    3     1     4    1
    4     4     5    1
    5     4     6    1
    6     6     7    1
    7     4     8    1
    8     8     9    1
    9     8    10    1
   10    10    11    1
   11     8    12    1
   12    12    13    1
   13    12    14    1
   14    14    15    1
   15     1    16    1
   16    14    16    1
   17    14    17    1
   18    17    18    1
   19    17    19    1
   20    17    20    1
   21    20    21    1
   22    22    23    1
   23    22    24    1
   24    22    25    1
   25    25    26    1
   26    25    27    1
   27    27    28    1
   28    25    29    1
   29    29    30    1
   30    29    31    1
   31    31    32    1
   32     3    33    1
   33    29    33    1
   34    33    34    1
   35    33    35    1
   36    35    36    1
   37    22    37    1
   38    35    37    1
   39    35    38    1
   40    38    39    1
   41    38    40    1
   42    38    41    1
   43    41    42    1
   44    43    44    1
   45    43    45    1
   46    43    46    1
   47    46    47    1
   48    46    48    1
   49    48    49    1
   50    46    50    1
   51    50    51    1
   52    50    52    1
   53    52    53    1
   54    24    54    1
   55    50    54    1
   56    54    55    1
   57    54    56    1
   58    56    57    1
   59    43    58    1
   60    56    58    1
   61    56    59    1
   62    59    60    1
   63    59    61    1
   64    59    62    1
   65    62    63    1
   66    64    65    1
   67    64    66    1
   68    64    67    1
   69    67    68    1
   70    67    69    1
   71    69    70    1
   72    67    71    1
   73    71    72    1
   74    71    73    1
   75    73    74    1
   76    45    75    1
   77    71    75    1
   78    75    76    1
   79    75    77    1
   80    77    78    1
   81    64    79    1
   82    77    79    1
   83    77    80    1
   84    80    81    1
   85    80    82    1
   86    80    83    1
   87    83    84    1
   88    85    86    1
   89    85    87    1
   90    85    88    1
   91    88    89    1
   92    88    90    1
   93    90    91    1
   94    88    92    1
   95    92    93    1
   96    92    94    1
   97    94    95    1
   98    66    96    1
   99    92    96    1
  100    96    97    1
  101    96    98    1
  102    98    99    1
  103    85   100    1
  104    98   100    1
  105    98   101    1
  106   101   102    1
  107   101   103    1
  108   101   104    1
  109   104   105    1
  110   106   107    1
  111    12   108    1
  112   106   108    1
  113   106   109    1
  114   109   110    1
  115   109   111    1
  116   111   112    1
  117   109   113    1
  118   113   114    1
  119   113   115    1
  120   115   116    1
  121    87   117    1
  122   113   117    1
  123   117   118    1
  124   117   119    1
  125   119   120    1
  126   106   121    1
  127   119   121    1
  128   119   122    1
  129   122   123    1
  130   122   124    1
  131   122   125    1
  132   125   126    1
  133   127   128    1
  134   127   129    1
  135   127   130    1
  136   127   131    1
  137   131   132    1
  138   131   133    1
  139   131   134    1
  140   134   135    1
  141   134   136    1
  142   134   137    1
  143   137   138    1
  144   137   139    1
  145   137   140    1
  146   140   141    1
  147   140   142    1
  148   140   143    1
  149   143   144    1
  150   143   145    1
  151   143   146    1
  152   146   147    1
  153   146   148    1
  154   146   149    1
  155   149   150    1
  156   149   151    1
  157   149   152    1
@<TRIPOS>SUBSTRUCTURE
       1 MOL1            1 RESIDUE      1      MOL     
       2 MOL1          152 RESIDUE      1      MOL     
@<SCITEGIC>MOL_PROPERTY
VM2 Rank
SciTegic.value.IntegerValue
1

@<SCITEGIC>MOL_PROPERTY
Conf_Id
SciTegic.value.IntegerValue
15015

@<SCITEGIC>MOL_PROPERTY
Probability
SciTegic.value.DoubleValue
2.46

@<SCITEGIC>MOL_PROPERTY
Sum Probability
SciTegic.value.DoubleValue
2.46

@<SCITEGIC>MOL_PROPERTY
Delta G
SciTegic.value.DoubleValue
0.000

@<SCITEGIC>MOL_PROPERTY
G
SciTegic.value.DoubleValue
566.369

@<SCITEGIC>MOL_PROPERTY
E
SciTegic.value.DoubleValue
364.910

@<SCITEGIC>MOL_PROPERTY
-TS
SciTegic.value.DoubleValue
201.458

@<SCITEGIC>MOL_PROPERTY
U+W
SciTegic.value.DoubleValue
230.774

@<SCITEGIC>MOL_PROPERTY
U
SciTegic.value.DoubleValue
315.923

@<SCITEGIC>MOL_PROPERTY
W
SciTegic.value.DoubleValue
-85.150

@<SCITEGIC>MOL_PROPERTY
W(PB)
SciTegic.value.DoubleValue
-91.390

@<SCITEGIC>MOL_PROPERTY
W(SA)
SciTegic.value.DoubleValue
6.240

@<SCITEGIC>MOL_PROPERTY
Valence
SciTegic.value.DoubleValue
146.714

@<SCITEGIC>MOL_PROPERTY
Coulomb
SciTegic.value.DoubleValue
195.630

@<SCITEGIC>MOL_PROPERTY
VdW
SciTegic.value.DoubleValue
-26.420

@<SCITEGIC>MOL_PROPERTY
VdW6
SciTegic.value.DoubleValue
-177.695

@<SCITEGIC>MOL_PROPERTY
VdW12
SciTegic.value.DoubleValue
151.275

@<SCITEGIC>MOL_PROPERTY
Bond
SciTegic.value.DoubleValue
4.391

@<SCITEGIC>MOL_PROPERTY
Angle
SciTegic.value.DoubleValue
10.020

@<SCITEGIC>MOL_PROPERTY
Pdih
SciTegic.value.DoubleValue
132.303

@<SCITEGIC>MOL_PROPERTY
Idih
SciTegic.value.DoubleValue
0.000

@<SCITEGIC>MOL_PROPERTY
Tether
SciTegic.value.DoubleValue
0.000

@<TRIPOS>MOLECULE
CD_guest-s14_vm2_single.mol2 : vm2 host+ligand conformer 2
         152         157           2
SMALL
USER_CHARGES
 
@<TRIPOS>ATOM
       1    C1      16.240567   15.104245   21.293009 C.3        1 MOL1         0.2972
       2    H1      15.196491   14.821452   21.109071 H          1 MOL1         0.0751
       3    O1      16.392338   16.527461   21.453836 O.3        1 MOL1        -0.3740
       4    C2      16.754957   14.427046   22.587617 C.3        1 MOL1         0.1003
       5    H2      16.667210   13.341711   22.448041 H          1 MOL1         0.0783
       6    O2      15.965066   14.821069   23.721245 O.3        1 MOL1        -0.5519
       7    H3      15.647505   15.743999   23.554429 H          1 MOL1         0.3769
       8    C3      18.247498   14.756336   22.829922 C.3        1 MOL1         0.1053
       9    H4      18.324895   15.828565   23.050507 H          1 MOL1         0.0783
      10    O3      18.712664   13.996887   23.950652 O.3        1 MOL1        -0.5519
      11    H5      17.978110   14.042164   24.604390 H          1 MOL1         0.3769
      12    C4      19.097597   14.457610   21.564601 C.3        1 MOL1         0.1018
      13    H6      19.179926   13.371809   21.420965 H          1 MOL1         0.0783
      14    C5      18.472546   15.075950   20.287373 C.3        1 MOL1         0.1043
      15    H7      18.559322   16.168701   20.339088 H          1 MOL1         0.0783
      16    O4      17.081756   14.678449   20.200318 O.3        1 MOL1        -0.3740
      17    C6      19.179100   14.589996   19.004434 C.3        1 MOL1         0.0138
      18    H8      18.978703   13.519621   18.862086 H          1 MOL1         0.0794
      19    H9      20.263474   14.711613   19.119231 H          1 MOL1         0.0794
      20    O5      18.729576   15.342263   17.876174 O.3        1 MOL1        -0.5486
      21    H10     17.752760   15.251763   17.847361 H          1 MOL1         0.3769
      22    C7      14.564014   20.184536   20.863121 C.3        1 MOL1         0.2972
      23    H11     13.897487   21.022482   20.621804 H          1 MOL1         0.0751
      24    O6      15.899560   20.625413   21.182697 O.3        1 MOL1        -0.3740
      25    C8      14.029300   19.385413   22.076918 C.3        1 MOL1         0.1003
      26    H12     13.050898   18.972449   21.799019 H          1 MOL1         0.0783
      27    O7      13.876036   20.229505   23.228832 O.3        1 MOL1        -0.5519
      28    H13     14.680779   20.804930   23.286798 H          1 MOL1         0.3769
      29    C9      14.978438   18.205469   22.391606 C.3        1 MOL1         0.1053
      30    H14     15.933778   18.627547   22.725966 H          1 MOL1         0.0783
      31    O8      14.419243   17.396740   23.430696 O.3        1 MOL1        -0.5519
      32    H15     14.075870   18.036180   24.094203 H          1 MOL1         0.3769
      33    C10     15.247994   17.340996   21.134123 C.3        1 MOL1         0.1018
      34    H16     14.354596   16.738388   20.923442 H          1 MOL1         0.0783
      35    C11     15.600078   18.193572   19.882871 C.3        1 MOL1         0.1043
      36    H17     16.612457   18.600219   19.996726 H          1 MOL1         0.0783
      37    O9      14.641159   19.271015   19.749465 O.3        1 MOL1        -0.3740
      38    C12     15.554318   17.376846   18.576083 C.3        1 MOL1         0.0138
      39    H18     14.535877   16.997354   18.418654 H          1 MOL1         0.0794
      40    H19     16.224042   16.514092   18.664110 H          1 MOL1         0.0794
      41    O10     15.962440   18.193124   17.477239 O.3        1 MOL1        -0.5486
      42    H20     15.389981   18.991068   17.505313 H          1 MOL1         0.3769
      43    C13     18.371085   23.941543   21.184297 C.3        1 MOL1         0.2972
      44    H21     18.814188   24.944312   21.128132 H          1 MOL1         0.0751
      45    O11     19.388819   22.916001   21.175870 O.3        1 MOL1        -0.3740
      46    C14     17.477414   23.795197   22.446679 C.3        1 MOL1         0.1003
      47    H22     16.654345   24.514197   22.342720 H          1 MOL1         0.0783
      48    O12     18.190074   24.087249   23.657305 O.3        1 MOL1        -0.5519
      49    H23     18.892866   23.395702   23.749613 H          1 MOL1         0.3769
      50    C15     16.863510   22.377005   22.503548 C.3        1 MOL1         0.1053
      51    H24     17.679638   21.654859   22.632687 H          1 MOL1         0.0783
      52    O13     15.960445   22.288522   23.610022 O.3        1 MOL1        -0.5519
      53    H25     16.422860   22.733816   24.354685 H          1 MOL1         0.3769
      54    C16     16.119282   22.046731   21.186371 C.3        1 MOL1         0.1018
      55    H26     15.176704   22.609802   21.173314 H          1 MOL1         0.0783
      56    C17     16.956060   22.389022   19.921668 C.3        1 MOL1         0.1043
      57    H27     17.766135   21.653312   19.832906 H          1 MOL1         0.0783
      58    O14     17.518297   23.719957   20.040869 O.3        1 MOL1        -0.3740
      59    C18     16.134181   22.342514   18.614389 C.3        1 MOL1         0.0138
      60    H28     15.779609   21.316946   18.449889 H          1 MOL1         0.0794
      61    H29     16.792866   22.598410   17.773751 H          1 MOL1         0.0794
      62    O15     15.025369   23.245037   18.669092 O.3        1 MOL1        -0.5486
      63    H30     15.404141   24.135263   18.843476 H          1 MOL1         0.3769
      64    C19     23.448558   22.355704   21.965123 C.3        1 MOL1         0.2972
      65    H31     24.487171   22.486951   22.292698 H          1 MOL1         0.0751
      66    O16     23.304042   21.207618   21.102302 O.3        1 MOL1        -0.3740
      67    C20     22.504859   22.197555   23.189191 C.3        1 MOL1         0.1003
      68    H32     22.606802   23.108783   23.792950 H          1 MOL1         0.0783
      69    O17     22.844547   21.060271   23.998803 O.3        1 MOL1        -0.5519
      70    H33     23.809897   20.896878   23.878036 H          1 MOL1         0.3769
      71    C21     21.033504   22.085122   22.733150 C.3        1 MOL1         0.1053
      72    H34     20.927865   21.152501   22.167441 H          1 MOL1         0.0783
      73    O18     20.195884   22.050882   23.892144 O.3        1 MOL1        -0.5519
      74    H35     20.659138   21.435894   24.504131 H          1 MOL1         0.3769
      75    C22     20.643116   23.257676   21.800975 C.3        1 MOL1         0.1018
      76    H36     20.565619   24.173329   22.402120 H          1 MOL1         0.0783
      77    C23     21.686062   23.462968   20.667570 C.3        1 MOL1         0.1043
      78    H37     21.617504   22.614234   19.973930 H          1 MOL1         0.0783
      79    O19     23.019232   23.524078   21.232353 O.3        1 MOL1        -0.3740
      80    C24     21.460158   24.756531   19.853132 C.3        1 MOL1         0.0138
      81    H38     20.501549   24.682148   19.322581 H          1 MOL1         0.0794
      82    H39     22.248499   24.837544   19.092778 H          1 MOL1         0.0794
      83    O20     21.466055   25.909717   20.699952 O.3        1 MOL1        -0.5486
      84    H40     22.335121   25.909342   21.159563 H          1 MOL1         0.3769
      85    C25     25.172048   17.596679   20.497123 C.3        1 MOL1         0.2972
      86    H41     25.790028   16.729538   20.230731 H          1 MOL1         0.0751
      87    O21     23.828025   17.200932   20.851051 O.3        1 MOL1        -0.3740
      88    C26     25.815714   18.419498   21.642091 C.3        1 MOL1         0.1003
      89    H42     26.745829   18.846742   21.244748 H          1 MOL1         0.0783
      90    O22     26.138216   17.613074   22.784032 O.3        1 MOL1        -0.5519
      91    H43     25.277920   17.328209   23.182744 H          1 MOL1         0.3769
      92    C27     24.887787   19.592160   22.037392 C.3        1 MOL1         0.1053
      93    H44     23.962875   19.168198   22.450567 H          1 MOL1         0.0783
      94    O23     25.549328   20.377489   23.036413 O.3        1 MOL1        -0.5519
      95    H45     26.024999   19.724421   23.599107 H          1 MOL1         0.3769
      96    C28     24.504322   20.460187   20.801572 C.3        1 MOL1         0.1018
      97    H46     25.335955   21.135086   20.559728 H          1 MOL1         0.0783
      98    C29     24.158255   19.611513   19.541350 C.3        1 MOL1         0.1043
      99    H47     23.140637   19.219492   19.659117 H          1 MOL1         0.0783
     100    O24     25.078442   18.501136   19.377553 O.3        1 MOL1        -0.3740
     101    C30     24.184006   20.440918   18.238777 C.3        1 MOL1         0.0138
     102    H48     23.473986   21.273872   18.330687 H          1 MOL1         0.0794
     103    H49     23.843356   19.806629   17.409534 H          1 MOL1         0.0794
     104    O25     25.498612   20.939236   17.973458 O.3        1 MOL1        -0.5486
     105    H50     26.092994   20.155899   17.978915 H          1 MOL1         0.3769
     106    C31     21.396960   14.234756   22.353235 C.3        1 MOL1         0.2972
     107    H51     20.956303   13.332673   22.796834 H          1 MOL1         0.0751
     108    O26     20.394264   15.063833   21.730576 O.3        1 MOL1        -0.3740
     109    C32     22.124842   15.059426   23.441988 C.3        1 MOL1         0.1003
     110    H52     22.912780   14.418519   23.858588 H          1 MOL1         0.0783
     111    O27     21.227628   15.447215   24.495943 O.3        1 MOL1        -0.5519
     112    H53     20.406512   14.908000   24.390487 H          1 MOL1         0.3769
     113    C33     22.795528   16.310837   22.831460 C.3        1 MOL1         0.1053
     114    H54     22.005023   16.993821   22.503187 H          1 MOL1         0.0783
     115    O28     23.578705   16.940878   23.847506 O.3        1 MOL1        -0.5519
     116    H55     22.987060   16.966045   24.633337 H          1 MOL1         0.3769
     117    C34     23.662500   15.972561   21.589501 C.3        1 MOL1         0.1018
     118    H56     24.621901   15.555035   21.922191 H          1 MOL1         0.0783
     119    C35     22.959627   14.979719   20.621014 C.3        1 MOL1         0.1043
     120    H57     22.169081   15.525133   20.089466 H          1 MOL1         0.0783
     121    O29     22.374298   13.875149   21.354412 O.3        1 MOL1        -0.3740
     122    C36     23.912598   14.390523   19.557630 C.3        1 MOL1         0.0138
     123    H58     24.287486   15.204653   18.923134 H          1 MOL1         0.0794
     124    H59     23.343456   13.708261   18.912064 H          1 MOL1         0.0794
     125    O30     25.005498   13.699442   20.169283 O.3        1 MOL1        -0.5486
     126    H60     24.607043   13.010326   20.746401 H          1 MOL1         0.3769
     127    C1      19.850750   19.035929   19.231845 C.3        1 MOL1        -0.2400
     128    H1      20.638976   18.832877   18.495707 H          1 MOL1         0.0971
     129    H2      18.957695   18.472447   18.929020 H          1 MOL1         0.0971
     130    H3      19.613934   20.106737   19.187552 H          1 MOL1         0.0971
     131    C2      20.311356   18.629265   20.646622 C.3        1 MOL1        -0.1385
     132    H4      21.222218   19.182841   20.910560 H          1 MOL1         0.0960
     133    H5      20.579315   17.564403   20.648640 H          1 MOL1         0.0960
     134    C3      19.218533   18.898140   21.703136 C.3        1 MOL1        -0.1409
     135    H6      18.931794   19.957458   21.674580 H          1 MOL1         0.0960
     136    H7      18.320395   18.321283   21.456903 H          1 MOL1         0.0960
     137    C4      19.690528   18.523379   23.123658 C.3        1 MOL1        -0.1409
     138    H8      20.599173   19.087414   23.375691 H          1 MOL1         0.0960
     139    H9      19.960597   17.461647   23.146685 H          1 MOL1         0.0960
     140    C5      18.602823   18.782091   24.186139 C.3        1 MOL1        -0.1409
     141    H10     18.288048   19.834251   24.149635 H          1 MOL1         0.0960
     142    H11     17.719571   18.171568   23.958920 H          1 MOL1         0.0960
     143    C6      19.103673   18.437860   25.603908 C.3        1 MOL1        -0.1450
     144    H12     19.984463   19.048439   25.843577 H          1 MOL1         0.0960
     145    H13     19.421808   17.386927   25.637446 H          1 MOL1         0.0960
     146    C7      18.007626   18.676801   26.655868 C.3        1 MOL1         0.0172
     147    H14     17.701987   19.726479   26.636964 H          1 MOL1         0.0934
     148    H15     17.135257   18.059541   26.424297 H          1 MOL1         0.0934
     149    N1      18.456878   18.343702   28.063606 N.4        1 MOL1        -0.5956
     150    H16     18.736266   17.361151   28.150092 H          1 MOL1         0.3624
     151    H17     17.712058   18.506285   28.749585 H          1 MOL1         0.3624
     152    H18     19.259550   18.912811   28.350916 H          1 MOL1         0.3624
@<TRIPOS>BOND
    1     1     2    1
    2     1     3    1
    3     1     4    1
    4     4     5    1
    5     4     6    1
    6     6     7    1
    7     4     8    1
    8     8     9    1
    9     8    10    1
   10    10    11    1
   11     8    12    1
   12    12    13    1
   13    12    14    1
   14    14    15    1
   15     1    16    1
   16    14    16    1
   17    14    17    1
   18    17    18    1
   19    17    19    1
   20    17    20    1
   21    20    21    1
   22    22    23    1
   23    22    24    1
   24    22    25    1
   25    25    26    1
   26    25    27    1
   27    27    28    1
   28    25    29    1
   29    29    30    1
   30    29    31    1
   31    31    32    1
   32     3    33    1
   33    29    33    1
   34    33    34    1
   35    33    35    1
   36    35    36    1
   37    22    37    1
   38    35    37    1
   39    35    38    1
   40    38    39    1
   41    38    40    1
   42    38    41    1
   43    41    42    1
   44    43    44    1
   45    43    45    1
   46    43    46    1
   47    46    47    1
   48    46    48    1
   49    48    49    1
   50    46    50    1
   51    50    51    1
   52    50    52    1
   53    52    53    1
   54    24    54    1
   55    50    54    1
   56    54    55    1
   57    54    56    1
   58    56    57    1
   59    43    58    1
   60    56    58    1
   61    56    59    1
   62    59    60    1
   63    59    61    1
   64    59    62    1
   65    62    63    1
   66    64    65    1
   67    64    66    1
   68    64    67    1
   69    67    68    1
   70    67    69    1
   71    69    70    1
   72    67    71    1
   73    71    72    1
   74    71    73    1
   75    73    74    1
   76    45    75    1
   77    71    75    1
   78    75    76    1
   79    75    77    1
   80    77    78    1
   81    64    79    1
   82    77    79    1
   83    77    80    1
   84    80    81    1
   85    80    82    1
   86    80    83    1
   87    83    84    1
   88    85    86    1
   89    85    87    1
   90    85    88    1
   91    88    89    1
   92    88    90    1
   93    90    91    1
   94    88    92    1
   95    92    93    1
   96    92    94    1
   97    94    95    1
   98    66    96    1
   99    92    96    1
  100    96    97    1
  101    96    98    1
  102    98    99    1
  103    85   100    1
  104    98   100    1
  105    98   101    1
  106   101   102    1
  107   101   103    1
  108   101   104    1
  109   104   105    1
  110   106   107    1
  111    12   108    1
  112   106   108    1
  113   106   109    1
  114   109   110    1
  115   109   111    1
  116   111   112    1
  117   109   113    1
  118   113   114    1
  119   113   115    1
  120   115   116    1
  121    87   117    1
  122   113   117    1
  123   117   118    1
  124   117   119    1
  125   119   120    1
  126   106   121    1
  127   119   121    1
  128   119   122    1
  129   122   123    1
  130   122   124    1
  131   122   125    1
  132   125   126    1
  133   127   128    1
  134   127   129    1
  135   127   130    1
  136   127   131    1
  137   131   132    1
  138   131   133    1
  139   131   134    1
  140   134   135    1
  141   134   136    1
  142   134   137    1
  143   137   138    1
  144   137   139    1
  145   137   140    1
  146   140   141    1
  147   140   142    1
  148   140   143    1
  149   143   144    1
  150   143   145    1
  151   143   146    1
  152   146   147    1
  153   146   148    1
  154   146   149    1
  155   149   150    1
  156   149   151    1
  157   149   152    1
@<TRIPOS>SUBSTRUCTURE
       1 MOL1            1 RESIDUE      1      MOL     
       2 MOL1          152 RESIDUE      1      MOL     
@<SCITEGIC>MOL_PROPERTY
VM2 Rank
SciTegic.value.IntegerValue
2

@<SCITEGIC>MOL_PROPERTY
Conf_Id
SciTegic.value.IntegerValue
19394

@<SCITEGIC>MOL_PROPERTY
Probability
SciTegic.value.DoubleValue
1.70

@<SCITEGIC>MOL_PROPERTY
Sum Probability
SciTegic.value.DoubleValue
4.16

@<SCITEGIC>MOL_PROPERTY
Delta G
SciTegic.value.DoubleValue
0.219

@<SCITEGIC>MOL_PROPERTY
G
SciTegic.value.DoubleValue
566.588

@<SCITEGIC>MOL_PROPERTY
E
SciTegic.value.DoubleValue
364.842

@<SCITEGIC>MOL_PROPERTY
-TS
SciTegic.value.DoubleValue
201.746

@<SCITEGIC>MOL_PROPERTY
U+W
SciTegic.value.DoubleValue
230.705

@<SCITEGIC>MOL_PROPERTY
U
SciTegic.value.DoubleValue
316.137

@<SCITEGIC>MOL_PROPERTY
W
SciTegic.value.DoubleValue
-85.432

@<SCITEGIC>MOL_PROPERTY
W(PB)
SciTegic.value.DoubleValue
-91.738

@<SCITEGIC>MOL_PROPERTY
W(SA)
SciTegic.value.DoubleValue
6.307

@<SCITEGIC>MOL_PROPERTY
Valence
SciTegic.value.DoubleValue
146.462

@<SCITEGIC>MOL_PROPERTY
Coulomb
SciTegic.value.DoubleValue
195.775

@<SCITEGIC>MOL_PROPERTY
VdW
SciTegic.value.DoubleValue
-26.100

@<SCITEGIC>MOL_PROPERTY
VdW6
SciTegic.value.DoubleValue
-177.860

@<SCITEGIC>MOL_PROPERTY
VdW12
SciTegic.value.DoubleValue
151.760

@<SCITEGIC>MOL_PROPERTY
Bond
SciTegic.value.DoubleValue
4.420

@<SCITEGIC>MOL_PROPERTY
Angle
SciTegic.value.DoubleValue
10.079

@<SCITEGIC>MOL_PROPERTY
Pdih
SciTegic.value.DoubleValue
131.963

@<SCITEGIC>MOL_PROPERTY
Idih
SciTegic.value.DoubleValue
0.000

@<SCITEGIC>MOL_PROPERTY
Tether
SciTegic.value.DoubleValue
0.000

@<TRIPOS>MOLECULE
CD_guest-s14_vm2_single.mol2 : vm2 host+ligand conformer 3
         152         157           2
SMALL
USER_CHARGES
 
@<TRIPOS>ATOM
       1    C1      16.293917   15.264860   20.647281 C.3        1 MOL1         0.2972
       2    H1      15.267058   15.051957   20.322805 H          1 MOL1         0.0751
       3    O1      16.453131   16.641249   21.039983 O.3        1 MOL1        -0.3740
       4    C2      16.710385   14.353585   21.831813 C.3        1 MOL1         0.1003
       5    H2      16.661377   13.317399   21.472482 H          1 MOL1         0.0783
       6    O2      15.823317   14.493726   22.951653 O.3        1 MOL1        -0.5519
       7    H3      15.803553   15.453324   23.197554 H          1 MOL1         0.3769
       8    C3      18.173979   14.638145   22.253589 C.3        1 MOL1         0.1053
       9    H4      18.225441   15.661547   22.651034 H          1 MOL1         0.0783
      10    O3      18.548986   13.703705   23.271761 O.3        1 MOL1        -0.5519
      11    H5      17.753708   13.625014   23.846663 H          1 MOL1         0.3769
      12    C4      19.127282   14.543655   21.028025 C.3        1 MOL1         0.1018
      13    H6      19.228787   13.495069   20.717604 H          1 MOL1         0.0783
      14    C5      18.598277   15.366482   19.823702 C.3        1 MOL1         0.1043
      15    H7      18.681174   16.434963   20.059011 H          1 MOL1         0.0783
      16    O4      17.216674   15.009675   19.567302 O.3        1 MOL1        -0.3740
      17    C6      19.396663   15.090981   18.532983 C.3        1 MOL1         0.0138
      18    H8      19.263889   14.040714   18.240815 H          1 MOL1         0.0794
      19    H9      20.465179   15.252159   18.724695 H          1 MOL1         0.0794
      20    O5      18.954098   15.962859   17.491477 O.3        1 MOL1        -0.5486
      21    H10     17.977900   15.860013   17.446774 H          1 MOL1         0.3769
      22    C7      14.603510   20.225983   21.679791 C.3        1 MOL1         0.2972
      23    H11     13.953329   21.093017   21.853829 H          1 MOL1         0.0751
      24    O6      15.951735   20.619149   21.348577 O.3        1 MOL1        -0.3740
      25    C8      14.646192   19.323500   22.936662 C.3        1 MOL1         0.1003
      26    H12     13.631935   18.937693   23.102845 H          1 MOL1         0.0783
      27    O7      15.071751   20.052543   24.099259 O.3        1 MOL1        -0.5519
      28    H13     15.407635   20.930077   23.790015 H          1 MOL1         0.3769
      29    C9      15.584802   18.122928   22.695631 C.3        1 MOL1         0.1053
      30    H14     16.598649   18.521616   22.601365 H          1 MOL1         0.0783
      31    O8      15.517189   17.239442   23.817876 O.3        1 MOL1        -0.5519
      32    H15     15.509554   17.834719   24.600984 H          1 MOL1         0.3769
      33    C10     15.256373   17.365415   21.384881 C.3        1 MOL1         0.1018
      34    H16     14.404868   16.696465   21.568009 H          1 MOL1         0.0783
      35    C11     14.952845   18.314093   20.187546 C.3        1 MOL1         0.1043
      36    H17     15.907874   18.713852   19.820972 H          1 MOL1         0.0783
      37    O9      14.098854   19.413718   20.598559 O.3        1 MOL1        -0.3740
      38    C12     14.268464   17.599505   19.001612 C.3        1 MOL1         0.0138
      39    H18     14.949929   16.837111   18.601428 H          1 MOL1         0.0794
      40    H19     14.091822   18.331472   18.202102 H          1 MOL1         0.0794
      41    O10     13.035516   16.996492   19.404347 O.3        1 MOL1        -0.5486
      42    H20     12.483199   17.720032   19.775951 H          1 MOL1         0.3769
      43    C13     18.422128   23.898660   20.817216 C.3        1 MOL1         0.2972
      44    H21     18.861872   24.875083   20.576315 H          1 MOL1         0.0751
      45    O11     19.444305   22.911848   21.072149 O.3        1 MOL1        -0.3740
      46    C14     17.460216   24.004362   22.033372 C.3        1 MOL1         0.1003
      47    H22     16.658187   24.696868   21.746408 H          1 MOL1         0.0783
      48    O12     18.113680   24.517757   23.203548 O.3        1 MOL1        -0.5519
      49    H23     18.802355   23.854404   23.462124 H          1 MOL1         0.3769
      50    C15     16.813923   22.632946   22.339629 C.3        1 MOL1         0.1053
      51    H24     17.606215   21.955512   22.685143 H          1 MOL1         0.0783
      52    O13     15.829499   22.792388   23.365113 O.3        1 MOL1        -0.5519
      53    H25     16.235972   23.407190   24.016968 H          1 MOL1         0.3769
      54    C16     16.168768   22.014601   21.072977 C.3        1 MOL1         0.1018
      55    H26     15.232105   22.538317   20.839398 H          1 MOL1         0.0783
      56    C17     17.101641   22.083957   19.836142 C.3        1 MOL1         0.1043
      57    H27     17.913570   21.358381   19.966312 H          1 MOL1         0.0783
      58    O14     17.635909   23.425332   19.703129 O.3        1 MOL1        -0.3740
      59    C18     16.356519   21.745849   18.528751 C.3        1 MOL1         0.0138
      60    H28     15.602689   22.519361   18.329888 H          1 MOL1         0.0794
      61    H29     15.830250   20.789714   18.646156 H          1 MOL1         0.0794
      62    O15     17.286227   21.659329   17.447636 O.3        1 MOL1        -0.5486
      63    H30     17.804998   22.494085   17.465726 H          1 MOL1         0.3769
      64    C19     23.443773   22.504859   22.129188 C.3        1 MOL1         0.2972
      65    H31     24.467479   22.663813   22.491583 H          1 MOL1         0.0751
      66    O16     23.325013   21.262450   21.407487 O.3        1 MOL1        -0.3740
      67    C20     22.445835   22.510171   23.318291 C.3        1 MOL1         0.1003
      68    H32     22.544683   23.484148   23.815060 H          1 MOL1         0.0783
      69    O17     22.727968   21.467870   24.266818 O.3        1 MOL1        -0.5519
      70    H33     23.666485   21.194144   24.128903 H          1 MOL1         0.3769
      71    C21     20.990588   22.369163   22.822701 C.3        1 MOL1         0.1053
      72    H34     20.878760   21.359398   22.412061 H          1 MOL1         0.0783
      73    O18     20.109078   22.548525   23.935240 O.3        1 MOL1        -0.5519
      74    H35     20.519478   22.018394   24.654271 H          1 MOL1         0.3769
      75    C22     20.656387   23.379446   21.698963 C.3        1 MOL1         0.1018
      76    H36     20.532305   24.374928   22.145024 H          1 MOL1         0.0783
      77    C23     21.761217   23.429068   20.607100 C.3        1 MOL1         0.1043
      78    H37     21.723473   22.493244   20.033350 H          1 MOL1         0.0783
      79    O19     23.062926   23.569460   21.230866 O.3        1 MOL1        -0.3740
      80    C24     21.588463   24.595414   19.608672 C.3        1 MOL1         0.0138
      81    H38     20.663041   24.443061   19.037630 H          1 MOL1         0.0794
      82    H39     22.420573   24.573178   18.892267 H          1 MOL1         0.0794
      83    O20     21.548666   25.855520   20.284676 O.3        1 MOL1        -0.5486
      84    H40     22.387578   25.922397   20.792846 H          1 MOL1         0.3769
      85    C25     25.274857   17.690198   20.898485 C.3        1 MOL1         0.2972
      86    H41     25.926810   16.835383   20.676899 H          1 MOL1         0.0751
      87    O21     23.904496   17.279079   21.092122 O.3        1 MOL1        -0.3740
      88    C26     25.774187   18.479378   22.135933 C.3        1 MOL1         0.1003
      89    H42     26.748124   18.909894   21.868551 H          1 MOL1         0.0783
      90    O22     25.947003   17.638974   23.285648 O.3        1 MOL1        -0.5519
      91    H43     25.046723   17.317489   23.543883 H          1 MOL1         0.3769
      92    C27     24.809536   19.648293   22.449127 C.3        1 MOL1         0.1053
      93    H44     23.849551   19.220883   22.770850 H          1 MOL1         0.0783
      94    O23     25.367644   20.435886   23.507044 O.3        1 MOL1        -0.5519
      95    H45     25.757754   19.782908   24.131842 H          1 MOL1         0.3769
      96    C28     24.547928   20.528626   21.192921 C.3        1 MOL1         0.1018
      97    H46     25.398180   21.206327   21.038055 H          1 MOL1         0.0783
      98    C29     24.330289   19.707810   19.889866 C.3        1 MOL1         0.1043
      99    H47     23.312872   19.299824   19.891041 H          1 MOL1         0.0783
     100    O24     25.294557   18.627901   19.802249 O.3        1 MOL1        -0.3740
     101    C30     24.485353   20.583199   18.629605 C.3        1 MOL1         0.0138
     102    H48     25.523147   20.935215   18.557236 H          1 MOL1         0.0794
     103    H49     23.837787   21.465707   18.721148 H          1 MOL1         0.0794
     104    O25     24.126172   19.833667   17.467472 O.3        1 MOL1        -0.5486
     105    H50     24.641843   18.997594   17.512170 H          1 MOL1         0.3769
     106    C31     21.332966   14.213908   22.036007 C.3        1 MOL1         0.2972
     107    H51     20.847018   13.278753   22.341494 H          1 MOL1         0.0751
     108    O26     20.406932   15.106422   21.380893 O.3        1 MOL1        -0.3740
     109    C32     21.927924   14.934546   23.270330 C.3        1 MOL1         0.1003
     110    H52     22.664398   14.255310   23.719097 H          1 MOL1         0.0783
     111    O27     20.912018   15.239643   24.240743 O.3        1 MOL1        -0.5519
     112    H53     20.132428   14.670273   24.031949 H          1 MOL1         0.3769
     113    C33     22.657468   16.229538   22.847485 C.3        1 MOL1         0.1053
     114    H54     21.904700   16.932335   22.477406 H          1 MOL1         0.0783
     115    O28     23.306946   16.784718   23.993539 O.3        1 MOL1        -0.5519
     116    H55     22.634221   16.724881   24.708910 H          1 MOL1         0.3769
     117    C34     23.667830   15.992391   21.695800 C.3        1 MOL1         0.1018
     118    H56     24.585268   15.548709   22.104675 H          1 MOL1         0.0783
     119    C35     23.088734   15.090230   20.569189 C.3        1 MOL1         0.1043
     120    H57     22.365741   15.683945   19.994688 H          1 MOL1         0.0783
     121    O29     22.421001   13.933463   21.130387 O.3        1 MOL1        -0.3740
     122    C36     24.163922   14.585015   19.581859 C.3        1 MOL1         0.0138
     123    H58     24.607811   15.446378   19.065216 H          1 MOL1         0.0794
     124    H59     23.678655   13.960979   18.819469 H          1 MOL1         0.0794
     125    O30     25.179568   13.840445   20.260323 O.3        1 MOL1        -0.5486
     126    H60     24.719073   13.106411   20.724904 H          1 MOL1         0.3769
     127    C1      19.969761   19.191886   19.214819 C.3        1 MOL1        -0.2400
     128    H1      19.786961   20.272096   19.152083 H          1 MOL1         0.0971
     129    H2      20.736755   18.939387   18.470919 H          1 MOL1         0.0971
     130    H3      19.045762   18.669429   18.934125 H          1 MOL1         0.0971
     131    C2      20.433599   18.788328   20.629473 C.3        1 MOL1        -0.1385
     132    H4      21.345093   19.344035   20.882850 H          1 MOL1         0.0960
     133    H5      20.699624   17.723259   20.635327 H          1 MOL1         0.0960
     134    C3      19.355665   19.066458   21.698382 C.3        1 MOL1        -0.1409
     135    H6      19.062495   20.123225   21.650625 H          1 MOL1         0.0960
     136    H7      18.459000   18.477452   21.473217 H          1 MOL1         0.0960
     137    C4      19.867943   18.730755   23.118242 C.3        1 MOL1        -0.1409
     138    H8      20.865439   19.170817   23.258028 H          1 MOL1         0.0960
     139    H9      19.982190   17.644152   23.218724 H          1 MOL1         0.0960
     140    C5      18.930974   19.238747   24.234764 C.3        1 MOL1        -0.1409
     141    H10     18.649178   20.282093   24.043299 H          1 MOL1         0.0960
     142    H11     18.004760   18.653050   24.236604 H          1 MOL1         0.0960
     143    C6      19.595480   19.132442   25.622821 C.3        1 MOL1        -0.1450
     144    H12     20.536675   19.699115   25.627381 H          1 MOL1         0.0960
     145    H13     19.849043   18.083852   25.830414 H          1 MOL1         0.0960
     146    C7      18.667340   19.670270   26.724903 C.3        1 MOL1         0.0172
     147    H14     18.420333   20.715463   26.519155 H          1 MOL1         0.0934
     148    H15     17.738410   19.093671   26.737796 H          1 MOL1         0.0934
     149    N1      19.285133   19.597821   28.106052 N.4        1 MOL1        -0.5956
     150    H16     20.150944   20.143632   28.163726 H          1 MOL1         0.3624
     151    H17     19.516462   18.634397   28.368739 H          1 MOL1         0.3624
     152    H18     18.651672   19.961911   28.825710 H          1 MOL1         0.3624
@<TRIPOS>BOND
    1     1     2    1
    2     1     3    1
    3     1     4    1
    4     4     5    1
    5     4     6    1
    6     6     7    1
    7     4     8    1
    8     8     9    1
    9     8    10    1
   10    10    11    1
   11     8    12    1
   12    12    13    1
   13    12    14    1
   14    14    15    1
   15     1    16    1
   16    14    16    1
   17    14    17    1
   18    17    18    1
   19    17    19    1
   20    17    20    1
   21    20    21    1
   22    22    23    1
   23    22    24    1
   24    22    25    1
   25    25    26    1
   26    25    27    1
   27    27    28    1
   28    25    29    1
   29    29    30    1
   30    29    31    1
   31    31    32    1
   32     3    33    1
   33    29    33    1
   34    33    34    1
   35    33    35    1
   36    35    36    1
   37    22    37    1
   38    35    37    1
   39    35    38    1
   40    38    39    1
   41    38    40    1
   42    38    41    1
   43    41    42    1
   44    43    44    1
   45    43    45    1
   46    43    46    1
   47    46    47    1
   48    46    48    1
   49    48    49    1
   50    46    50    1
   51    50    51    1
   52    50    52    1
   53    52    53    1
   54    24    54    1
   55    50    54    1
   56    54    55    1
   57    54    56    1
   58    56    57    1
   59    43    58    1
   60    56    58    1
   61    56    59    1
   62    59    60    1
   63    59    61    1
   64    59    62    1
   65    62    63    1
   66    64    65    1
   67    64    66    1
   68    64    67    1
   69    67    68    1
   70    67    69    1
   71    69    70    1
   72    67    71    1
   73    71    72    1
   74    71    73    1
   75    73    74    1
   76    45    75    1
   77    71    75    1
   78    75    76    1
   79    75    77    1
   80    77    78    1
   81    64    79    1
   82    77    79    1
   83    77    80    1
   84    80    81    1
   85    80    82    1
   86    80    83    1
   87    83    84    1
   88    85    86    1
   89    85    87    1
   90    85    88    1
   91    88    89    1
   92    88    90    1
   93    90    91    1
   94    88    92    1
   95    92    93    1
   96    92    94    1
   97    94    95    1
   98    66    96    1
   99    92    96    1
  100    96    97    1
  101    96    98    1
  102    98    99    1
  103    85   100    1
  104    98   100    1
  105    98   101    1
  106   101   102    1
  107   101   103    1
  108   101   104    1
  109   104   105    1
  110   106   107    1
  111    12   108    1
  112   106   108    1
  113   106   109    1
  114   109   110    1
  115   109   111    1
  116   111   112    1
  117   109   113    1
  118   113   114    1
  119   113   115    1
  120   115   116    1
  121    87   117    1
  122   113   117    1
  123   117   118    1
  124   117   119    1
  125   119   120    1
  126   106   121    1
  127   119   121    1
  128   119   122    1
  129   122   123    1
  130   122   124    1
  131   122   125    1
  132   125   126    1
  133   127   128    1
  134   127   129    1
  135   127   130    1
  136   127   131    1
  137   131   132    1
  138   131   133    1
  139   131   134    1
  140   134   135    1
  141   134   136    1
  142   134   137    1
  143   137   138    1
  144   137   139    1
  145   137   140    1
  146   140   141    1
  147   140   142    1
  148   140   143    1
  149   143   144    1
  150   143   145    1
  151   143   146    1
  152   146   147    1
  153   146   148    1
  154   146   149    1
  155   149   150    1
  156   149   151    1
  157   149   152    1
@<TRIPOS>SUBSTRUCTURE
       1 MOL1            1 RESIDUE      1      MOL     
       2 MOL1          152 RESIDUE      1      MOL     
@<SCITEGIC>MOL_PROPERTY
VM2 Rank
SciTegic.value.IntegerValue
3

@<SCITEGIC>MOL_PROPERTY
Conf_Id
SciTegic.value.IntegerValue
20051

@<SCITEGIC>MOL_PROPERTY
Probability
SciTegic.value.DoubleValue
1.45

@<SCITEGIC>MOL_PROPERTY
Sum Probability
SciTegic.value.DoubleValue
5.61

@<SCITEGIC>MOL_PROPERTY
Delta G
SciTegic.value.DoubleValue
0.314

@<SCITEGIC>MOL_PROPERTY
G
SciTegic.value.DoubleValue
566.683

@<SCITEGIC>MOL_PROPERTY
E
SciTegic.value.DoubleValue
365.107

@<SCITEGIC>MOL_PROPERTY
-TS
SciTegic.value.DoubleValue
201.576

@<SCITEGIC>MOL_PROPERTY
U+W
SciTegic.value.DoubleValue
230.971

@<SCITEGIC>MOL_PROPERTY
U
SciTegic.value.DoubleValue
315.251

@<SCITEGIC>MOL_PROPERTY
W
SciTegic.value.DoubleValue
-84.281

@<SCITEGIC>MOL_PROPERTY
W(PB)
SciTegic.value.DoubleValue
-90.550

@<SCITEGIC>MOL_PROPERTY
W(SA)
SciTegic.value.DoubleValue
6.269

@<SCITEGIC>MOL_PROPERTY
Valence
SciTegic.value.DoubleValue
147.175

@<SCITEGIC>MOL_PROPERTY
Coulomb
SciTegic.value.DoubleValue
193.636

@<SCITEGIC>MOL_PROPERTY
VdW
SciTegic.value.DoubleValue
-25.560

@<SCITEGIC>MOL_PROPERTY
VdW6
SciTegic.value.DoubleValue
-176.767

@<SCITEGIC>MOL_PROPERTY
VdW12
SciTegic.value.DoubleValue
151.206

@<SCITEGIC>MOL_PROPERTY
Bond
SciTegic.value.DoubleValue
4.416

@<SCITEGIC>MOL_PROPERTY
Angle
SciTegic.value.DoubleValue
10.481

@<SCITEGIC>MOL_PROPERTY
Pdih
SciTegic.value.DoubleValue
132.279

@<SCITEGIC>MOL_PROPERTY
Idih
SciTegic.value.DoubleValue
0.000

@<SCITEGIC>MOL_PROPERTY
Tether
SciTegic.value.DoubleValue
0.000

@<TRIPOS>MOLECULE
CD_guest-s14_vm2_single.mol2 : vm2 host+ligand conformer 4
         152         157           2
SMALL
USER_CHARGES
 
@<TRIPOS>ATOM
       1    C1      16.278343   15.124124   21.251399 C.3        1 MOL1         0.2972
       2    H1      15.235161   14.843312   21.059493 H          1 MOL1         0.0751
       3    O1      16.432989   16.548185   21.402997 O.3        1 MOL1        -0.3740
       4    C2      16.777770   14.452951   22.555014 C.3        1 MOL1         0.1003
       5    H2      16.689364   13.367066   22.420208 H          1 MOL1         0.0783
       6    O2      15.977651   14.853954   23.678935 O.3        1 MOL1        -0.5519
       7    H3      15.644783   15.768043   23.494510 H          1 MOL1         0.3769
       8    C3      18.268142   14.780483   22.810656 C.3        1 MOL1         0.1053
       9    H4      18.345082   15.853600   23.025581 H          1 MOL1         0.0783
      10    O3      18.720704   14.026682   23.940253 O.3        1 MOL1        -0.5519
      11    H5      17.979282   14.076530   24.585853 H          1 MOL1         0.3769
      12    C4      19.130873   14.472736   21.556560 C.3        1 MOL1         0.1018
      13    H6      19.214045   13.385764   21.422509 H          1 MOL1         0.0783
      14    C5      18.520489   15.080320   20.266945 C.3        1 MOL1         0.1043
      15    H7      18.612111   16.173456   20.306548 H          1 MOL1         0.0783
      16    O4      17.128546   14.687814   20.169800 O.3        1 MOL1        -0.3740
      17    C6      19.238098   14.574195   18.997929 C.3        1 MOL1         0.0138
      18    H8      19.050740   13.498599   18.879100 H          1 MOL1         0.0794
      19    H9      20.320504   14.711124   19.114522 H          1 MOL1         0.0794
      20    O5      18.784126   15.294364   17.850908 O.3        1 MOL1        -0.5486
      21    H10     17.808440   15.191660   17.822723 H          1 MOL1         0.3769
      22    C7      14.611803   20.205817   20.797409 C.3        1 MOL1         0.2972
      23    H11     13.952082   21.045981   20.545174 H          1 MOL1         0.0751
      24    O6      15.935564   20.643919   21.164211 O.3        1 MOL1        -0.3740
      25    C8      14.043533   19.394599   21.987469 C.3        1 MOL1         0.1003
      26    H12     13.072937   18.984878   21.679121 H          1 MOL1         0.0783
      27    O7      13.860845   20.228270   23.142943 O.3        1 MOL1        -0.5519
      28    H13     14.667428   20.797423   23.230328 H          1 MOL1         0.3769
      29    C9      14.984496   18.211999   22.317158 C.3        1 MOL1         0.1053
      30    H14     15.927927   18.632168   22.685688 H          1 MOL1         0.0783
      31    O8      14.395297   17.391022   23.329620 O.3        1 MOL1        -0.5519
      32    H15     14.031217   18.022449   23.989768 H          1 MOL1         0.3769
      33    C10     15.295636   17.362062   21.059154 C.3        1 MOL1         0.1018
      34    H16     14.411257   16.759295   20.813767 H          1 MOL1         0.0783
      35    C11     15.682332   18.228730   19.828123 C.3        1 MOL1         0.1043
      36    H17     16.689223   18.637901   19.975948 H          1 MOL1         0.0783
      37    O9      14.723875   19.304130   19.676974 O.3        1 MOL1        -0.3740
      38    C12     15.679646   17.424088   18.513184 C.3        1 MOL1         0.0138
      39    H18     14.671035   17.031150   18.327984 H          1 MOL1         0.0794
      40    H19     16.360197   16.570564   18.610071 H          1 MOL1         0.0794
      41    O10     16.100972   18.257147   17.432040 O.3        1 MOL1        -0.5486
      42    H20     15.516323   19.046205   17.455830 H          1 MOL1         0.3769
      43    C13     18.393998   23.967440   21.237727 C.3        1 MOL1         0.2972
      44    H21     18.833905   24.972441   21.199763 H          1 MOL1         0.0751
      45    O11     19.415584   22.945626   21.230878 O.3        1 MOL1        -0.3740
      46    C14     17.485331   23.801781   22.486850 C.3        1 MOL1         0.1003
      47    H22     16.659833   24.517796   22.381122 H          1 MOL1         0.0783
      48    O12     18.182452   24.082107   23.709414 O.3        1 MOL1        -0.5519
      49    H23     18.889791   23.394934   23.799838 H          1 MOL1         0.3769
      50    C15     16.878682   22.379782   22.518467 C.3        1 MOL1         0.1053
      51    H24     17.697200   21.660106   22.646020 H          1 MOL1         0.0783
      52    O13     15.963872   22.269651   23.613797 O.3        1 MOL1        -0.5519
      53    H25     16.415476   22.706421   24.369966 H          1 MOL1         0.3769
      54    C16     16.150435   22.065513   21.189052 C.3        1 MOL1         0.1018
      55    H26     15.206726   22.626654   21.176168 H          1 MOL1         0.0783
      56    C17     16.998070   22.427719   19.937293 C.3        1 MOL1         0.1043
      57    H27     17.815215   21.699300   19.854826 H          1 MOL1         0.0783
      58    O14     17.558587   23.757014   20.080107 O.3        1 MOL1        -0.3740
      59    C18     16.198551   22.373064   18.613482 C.3        1 MOL1         0.0138
      60    H28     15.992734   21.321203   18.375277 H          1 MOL1         0.0794
      61    H29     16.828358   22.771878   17.807053 H          1 MOL1         0.0794
      62    O15     14.967608   23.103385   18.693092 O.3        1 MOL1        -0.5486
      63    H30     14.544407   23.070554   17.807599 H          1 MOL1         0.3769
      64    C19     23.469461   22.385540   22.036606 C.3        1 MOL1         0.2972
      65    H31     24.507285   22.512346   22.368232 H          1 MOL1         0.0751
      66    O16     23.324656   21.245828   21.163220 O.3        1 MOL1        -0.3740
      67    C20     22.520769   22.218417   23.255650 C.3        1 MOL1         0.1003
      68    H32     22.619453   23.125351   23.866375 H          1 MOL1         0.0783
      69    O17     22.858244   21.075477   24.058078 O.3        1 MOL1        -0.5519
      70    H33     23.824148   20.913789   23.939905 H          1 MOL1         0.3769
      71    C21     21.051433   22.107950   22.792223 C.3        1 MOL1         0.1053
      72    H34     20.949127   21.179493   22.219228 H          1 MOL1         0.0783
      73    O18     20.207652   22.063673   23.946482 O.3        1 MOL1        -0.5519
      74    H35     20.668343   21.444910   24.556636 H          1 MOL1         0.3769
      75    C22     20.664115   23.286996   21.866890 C.3        1 MOL1         0.1018
      76    H36     20.579247   24.197557   22.474771 H          1 MOL1         0.0783
      77    C23     21.712683   23.504293   20.740704 C.3        1 MOL1         0.1043
      78    H37     21.646866   22.662727   20.037971 H          1 MOL1         0.0783
      79    O19     23.044078   23.559819   21.311121 O.3        1 MOL1        -0.3740
      80    C24     21.489622   24.805979   19.938524 C.3        1 MOL1         0.0138
      81    H38     20.532493   24.737377   19.404495 H          1 MOL1         0.0794
      82    H39     22.280061   24.894380   19.181225 H          1 MOL1         0.0794
      83    O20     21.493703   25.950519   20.796967 O.3        1 MOL1        -0.5486
      84    H40     22.361056   25.944634   21.259772 H          1 MOL1         0.3769
      85    C25     25.197526   17.633774   20.537662 C.3        1 MOL1         0.2972
      86    H41     25.821336   16.773786   20.261909 H          1 MOL1         0.0751
      87    O21     23.855922   17.226064   20.887232 O.3        1 MOL1        -0.3740
      88    C26     25.834845   18.448990   21.691477 C.3        1 MOL1         0.1003
      89    H42     26.765287   18.881115   21.300267 H          1 MOL1         0.0783
      90    O22     26.156381   17.635371   22.828452 O.3        1 MOL1        -0.5519
      91    H43     25.295878   17.344244   23.222136 H          1 MOL1         0.3769
      92    C27     24.903110   19.617136   22.092308 C.3        1 MOL1         0.1053
      93    H44     23.979646   19.189059   22.504668 H          1 MOL1         0.0783
      94    O23     25.564737   20.400545   23.092520 O.3        1 MOL1        -0.5519
      95    H45     26.039921   19.746480   23.654531 H          1 MOL1         0.3769
      96    C28     24.517333   20.488779   20.859399 C.3        1 MOL1         0.1018
      97    H46     25.352830   21.155715   20.608572 H          1 MOL1         0.0783
      98    C29     24.157235   19.643007   19.603307 C.3        1 MOL1         0.1043
      99    H47     23.143911   19.242800   19.727370 H          1 MOL1         0.0783
     100    O24     25.097825   18.551860   19.428894 O.3        1 MOL1        -0.3740
     101    C30     24.174105   20.490434   18.314841 C.3        1 MOL1         0.0138
     102    H48     25.199235   20.831627   18.117764 H          1 MOL1         0.0794
     103    H49     23.546528   21.380226   18.459392 H          1 MOL1         0.0794
     104    O25     23.680164   19.719474   17.217894 O.3        1 MOL1        -0.5486
     105    H50     24.192849   18.880396   17.221797 H          1 MOL1         0.3769
     106    C31     21.425201   14.247488   22.357696 C.3        1 MOL1         0.2972
     107    H51     20.982144   13.342772   22.793552 H          1 MOL1         0.0751
     108    O26     20.425810   15.079662   21.733564 O.3        1 MOL1        -0.3740
     109    C32     22.147005   15.065175   23.455703 C.3        1 MOL1         0.1003
     110    H52     22.933220   14.421918   23.871939 H          1 MOL1         0.0783
     111    O27     21.244522   15.445474   24.507845 O.3        1 MOL1        -0.5519
     112    H53     20.418491   14.917068   24.386527 H          1 MOL1         0.3769
     113    C33     22.820211   16.320865   22.857240 C.3        1 MOL1         0.1053
     114    H54     22.030603   17.005698   22.530624 H          1 MOL1         0.0783
     115    O28     23.598115   16.944329   23.881368 O.3        1 MOL1        -0.5519
     116    H55     23.002962   16.962970   24.664752 H          1 MOL1         0.3769
     117    C34     23.693277   15.992353   21.616759 C.3        1 MOL1         0.1018
     118    H56     24.653209   15.576570   21.950038 H          1 MOL1         0.0783
     119    C35     22.997149   15.003783   20.638915 C.3        1 MOL1         0.1043
     120    H57     22.209035   15.551255   20.105758 H          1 MOL1         0.0783
     121    O29     22.408660   13.894341   21.362587 O.3        1 MOL1        -0.3740
     122    C36     23.956815   14.421882   19.577597 C.3        1 MOL1         0.0138
     123    H58     24.334599   15.240187   18.950259 H          1 MOL1         0.0794
     124    H59     23.392043   13.743059   18.924612 H          1 MOL1         0.0794
     125    O30     25.046736   13.728046   20.191435 O.3        1 MOL1        -0.5486
     126    H60     24.645502   13.035693   20.762715 H          1 MOL1         0.3769
     127    C1      19.984297   19.144517   19.284437 C.3        1 MOL1        -0.2400
     128    H1      19.760070   20.218951   19.275455 H          1 MOL1         0.0971
     129    H2      20.799434   18.965223   18.570869 H          1 MOL1         0.0971
     130    H3      19.098352   18.603765   18.924886 H          1 MOL1         0.0971
     131    C2      20.386566   18.675610   20.697804 C.3        1 MOL1        -0.1385
     132    H4      21.292855   19.207066   21.016355 H          1 MOL1         0.0960
     133    H5      20.642401   17.608092   20.667524 H          1 MOL1         0.0960
     134    C3      19.259533   18.917033   21.724204 C.3        1 MOL1        -0.1409
     135    H6      18.963976   19.974109   21.705138 H          1 MOL1         0.0960
     136    H7      18.375305   18.336257   21.439807 H          1 MOL1         0.0960
     137    C4      19.691878   18.523479   23.152249 C.3        1 MOL1        -0.1409
     138    H8      20.581127   19.098987   23.444480 H          1 MOL1         0.0960
     139    H9      19.981054   17.466692   23.164523 H          1 MOL1         0.0960
     140    C5      18.565070   18.743167   24.182221 C.3        1 MOL1        -0.1409
     141    H10     18.239752   19.792676   24.161189 H          1 MOL1         0.0960
     142    H11     17.697714   18.129163   23.908449 H          1 MOL1         0.0960
     143    C6      19.018941   18.366824   25.607563 C.3        1 MOL1        -0.1450
     144    H12     19.880126   18.983870   25.896722 H          1 MOL1         0.0960
     145    H13     19.352641   17.320325   25.623932 H          1 MOL1         0.0960
     146    C7      17.880704   18.558592   26.623796 C.3        1 MOL1         0.0172
     147    H14     17.559204   19.603687   26.623521 H          1 MOL1         0.0934
     148    H15     17.027578   17.935423   26.341735 H          1 MOL1         0.0934
     149    N1      18.282223   18.190935   28.037341 N.4        1 MOL1        -0.5956
     150    H16     18.573586   17.210453   28.105972 H          1 MOL1         0.3624
     151    H17     17.509776   18.322322   28.699021 H          1 MOL1         0.3624
     152    H18     19.064507   18.763046   28.371137 H          1 MOL1         0.3624
@<TRIPOS>BOND
    1     1     2    1
    2     1     3    1
    3     1     4    1
    4     4     5    1
    5     4     6    1
    6     6     7    1
    7     4     8    1
    8     8     9    1
    9     8    10    1
   10    10    11    1
   11     8    12    1
   12    12    13    1
   13    12    14    1
   14    14    15    1
   15     1    16    1
   16    14    16    1
   17    14    17    1
   18    17    18    1
   19    17    19    1
   20    17    20    1
   21    20    21    1
   22    22    23    1
   23    22    24    1
   24    22    25    1
   25    25    26    1
   26    25    27    1
   27    27    28    1
   28    25    29    1
   29    29    30    1
   30    29    31    1
   31    31    32    1
   32     3    33    1
   33    29    33    1
   34    33    34    1
   35    33    35    1
   36    35    36    1
   37    22    37    1
   38    35    37    1
   39    35    38    1
   40    38    39    1
   41    38    40    1
   42    38    41    1
   43    41    42    1
   44    43    44    1
   45    43    45    1
   46    43    46    1
   47    46    47    1
   48    46    48    1
   49    48    49    1
   50    46    50    1
   51    50    51    1
   52    50    52    1
   53    52    53    1
   54    24    54    1
   55    50    54    1
   56    54    55    1
   57    54    56    1
   58    56    57    1
   59    43    58    1
   60    56    58    1
   61    56    59    1
   62    59    60    1
   63    59    61    1
   64    59    62    1
   65    62    63    1
   66    64    65    1
   67    64    66    1
   68    64    67    1
   69    67    68    1
   70    67    69    1
   71    69    70    1
   72    67    71    1
   73    71    72    1
   74    71    73    1
   75    73    74    1
   76    45    75    1
   77    71    75    1
   78    75    76    1
   79    75    77    1
   80    77    78    1
   81    64    79    1
   82    77    79    1
   83    77    80    1
   84    80    81    1
   85    80    82    1
   86    80    83    1
   87    83    84    1
   88    85    86    1
   89    85    87    1
   90    85    88    1
   91    88    89    1
   92    88    90    1
   93    90    91    1
   94    88    92    1
   95    92    93    1
   96    92    94    1
   97    94    95    1
   98    66    96    1
   99    92    96    1
  100    96    97    1
  101    96    98    1
  102    98    99    1
  103    85   100    1
  104    98   100    1
  105    98   101    1
  106   101   102    1
  107   101   103    1
  108   101   104    1
  109   104   105    1
  110   106   107    1
  111    12   108    1
  112   106   108    1
  113   106   109    1
  114   109   110    1
  115   109   111    1
  116   111   112    1
  117   109   113    1
  118   113   114    1
  119   113   115    1
  120   115   116    1
  121    87   117    1
  122   113   117    1
  123   117   118    1
  124   117   119    1
  125   119   120    1
  126   106   121    1
  127   119   121    1
  128   119   122    1
  129   122   123    1
  130   122   124    1
  131   122   125    1
  132   125   126    1
  133   127   128    1
  134   127   129    1
  135   127   130    1
  136   127   131    1
  137   131   132    1
  138   131   133    1
  139   131   134    1
  140   134   135    1
  141   134   136    1
  142   134   137    1
  143   137   138    1
  144   137   139    1
  145   137   140    1
  146   140   141    1
  147   140   142    1
  148   140   143    1
  149   143   144    1
  150   143   145    1
  151   143   146    1
  152   146   147    1
  153   146   148    1
  154   146   149    1
  155   149   150    1
  156   149   151    1
  157   149   152    1
@<TRIPOS>SUBSTRUCTURE
       1 MOL1            1 RESIDUE      1      MOL     
       2 MOL1          152 RESIDUE      1      MOL     
@<SCITEGIC>MOL_PROPERTY
VM2 Rank
SciTegic.value.IntegerValue
4

@<SCITEGIC>MOL_PROPERTY
Conf_Id
SciTegic.value.IntegerValue
24388

@<SCITEGIC>MOL_PROPERTY
Probability
SciTegic.value.DoubleValue
1.24

@<SCITEGIC>MOL_PROPERTY
Sum Probability
SciTegic.value.DoubleValue
6.85

@<SCITEGIC>MOL_PROPERTY
Delta G
SciTegic.value.DoubleValue
0.407

@<SCITEGIC>MOL_PROPERTY
G
SciTegic.value.DoubleValue
566.776

@<SCITEGIC>MOL_PROPERTY
E
SciTegic.value.DoubleValue
365.417

@<SCITEGIC>MOL_PROPERTY
-TS
SciTegic.value.DoubleValue
201.359

@<SCITEGIC>MOL_PROPERTY
U+W
SciTegic.value.DoubleValue
231.280

@<SCITEGIC>MOL_PROPERTY
U
SciTegic.value.DoubleValue
317.462

@<SCITEGIC>MOL_PROPERTY
W
SciTegic.value.DoubleValue
-86.182

@<SCITEGIC>MOL_PROPERTY
W(PB)
SciTegic.value.DoubleValue
-92.436

@<SCITEGIC>MOL_PROPERTY
W(SA)
SciTegic.value.DoubleValue
6.254

@<SCITEGIC>MOL_PROPERTY
Valence
SciTegic.value.DoubleValue
146.351

@<SCITEGIC>MOL_PROPERTY
Coulomb
SciTegic.value.DoubleValue
197.556

@<SCITEGIC>MOL_PROPERTY
VdW
SciTegic.value.DoubleValue
-26.445

@<SCITEGIC>MOL_PROPERTY
VdW6
SciTegic.value.DoubleValue
-177.686

@<SCITEGIC>MOL_PROPERTY
VdW12
SciTegic.value.DoubleValue
151.241

@<SCITEGIC>MOL_PROPERTY
Bond
SciTegic.value.DoubleValue
4.401

@<SCITEGIC>MOL_PROPERTY
Angle
SciTegic.value.DoubleValue
10.148

@<SCITEGIC>MOL_PROPERTY
Pdih
SciTegic.value.DoubleValue
131.803

@<SCITEGIC>MOL_PROPERTY
Idih
SciTegic.value.DoubleValue
0.000

@<SCITEGIC>MOL_PROPERTY
Tether
SciTegic.value.DoubleValue
0.000

@<TRIPOS>MOLECULE
CD_guest-s14_vm2_single.mol2 : vm2 host+ligand conformer 5
         152         157           2
SMALL
USER_CHARGES
 
@<TRIPOS>ATOM
       1    C1      16.273558   15.067225   21.109378 C.3        1 MOL1         0.2972
       2    H1      15.219716   14.846672   20.898291 H          1 MOL1         0.0751
       3    O1      16.489203   16.467186   21.379028 O.3        1 MOL1        -0.3740
       4    C2      16.753598   14.263529   22.342621 C.3        1 MOL1         0.1003
       5    H2      16.630622   13.198465   22.106554 H          1 MOL1         0.0783
       6    O2      15.968959   14.579552   23.503469 O.3        1 MOL1        -0.5519
       7    H3      15.773063   15.550458   23.476285 H          1 MOL1         0.3769
       8    C3      18.254864   14.517338   22.619990 C.3        1 MOL1         0.1053
       9    H4      18.368437   15.561041   22.941030 H          1 MOL1         0.0783
      10    O3      18.680658   13.638342   23.666423 O.3        1 MOL1        -0.5519
      11    H5      17.936342   13.638031   24.310961 H          1 MOL1         0.3769
      12    C4      19.111057   14.310130   21.339415 C.3        1 MOL1         0.1018
      13    H6      19.197308   13.237959   21.117703 H          1 MOL1         0.0783
      14    C5      18.502443   15.026004   20.104557 C.3        1 MOL1         0.1043
      15    H7      18.622454   16.109676   20.225297 H          1 MOL1         0.0783
      16    O4      17.099736   14.685212   19.990432 O.3        1 MOL1        -0.3740
      17    C6      19.195755   14.607126   18.791722 C.3        1 MOL1         0.0138
      18    H8      18.978067   13.550482   18.586220 H          1 MOL1         0.0794
      19    H9      20.282848   14.706625   18.907998 H          1 MOL1         0.0794
      20    O5      18.748466   15.433492   17.715493 O.3        1 MOL1        -0.5486
      21    H10     17.768870   15.368539   17.701477 H          1 MOL1         0.3769
      22    C7      14.643559   20.187081   21.151728 C.3        1 MOL1         0.2972
      23    H11     13.933446   21.015052   21.032040 H          1 MOL1         0.0751
      24    O6      16.000594   20.652649   21.303820 O.3        1 MOL1        -0.3740
      25    C8      14.287451   19.348068   22.404028 C.3        1 MOL1         0.1003
      26    H12     13.281792   18.934879   22.252371 H          1 MOL1         0.0783
      27    O7      14.289723   20.156362   23.591217 O.3        1 MOL1        -0.5519
      28    H13     14.989981   20.848105   23.479288 H          1 MOL1         0.3769
      29    C9      15.273184   18.166454   22.551119 C.3        1 MOL1         0.1053
      30    H14     16.267311   18.584825   22.748148 H          1 MOL1         0.0783
      31    O8      14.868769   17.336993   23.644176 O.3        1 MOL1        -0.5519
      32    H15     14.619068   17.965812   24.357992 H          1 MOL1         0.3769
      33    C10     15.346424   17.334438   21.246839 C.3        1 MOL1         0.1018
      34    H16     14.410094   16.770875   21.140031 H          1 MOL1         0.0783
      35    C11     15.558187   18.228777   19.993477 C.3        1 MOL1         0.1043
      36    H17     16.578350   18.634032   20.008883 H          1 MOL1         0.0783
      37    O9      14.588000   19.305936   20.009749 O.3        1 MOL1        -0.3740
      38    C12     15.364613   17.456958   18.672139 C.3        1 MOL1         0.0138
      39    H18     14.344642   17.051867   18.632683 H          1 MOL1         0.0794
      40    H19     16.063170   16.612454   18.639336 H          1 MOL1         0.0794
      41    O10     15.604029   18.322688   17.561237 O.3        1 MOL1        -0.5486
      42    H20     15.013493   19.097737   17.689960 H          1 MOL1         0.3769
      43    C13     18.435297   23.995728   20.990777 C.3        1 MOL1         0.2972
      44    H21     18.860613   24.994515   20.828047 H          1 MOL1         0.0751
      45    O11     19.471037   23.003421   21.151904 O.3        1 MOL1        -0.3740
      46    C14     17.492690   23.983319   22.225490 C.3        1 MOL1         0.1003
      47    H22     16.665634   24.670768   22.005059 H          1 MOL1         0.0783
      48    O12     18.153136   24.428088   23.419536 O.3        1 MOL1        -0.5519
      49    H23     18.866000   23.769505   23.616712 H          1 MOL1         0.3769
      50    C15     16.894254   22.571701   22.429114 C.3        1 MOL1         0.1053
      51    H24     17.713048   21.884734   22.679381 H          1 MOL1         0.0783
      52    O13     15.945086   22.604860   23.499010 O.3        1 MOL1        -0.5519
      53    H25     16.368839   23.146910   24.201503 H          1 MOL1         0.3769
      54    C16     16.213176   22.066706   21.133326 C.3        1 MOL1         0.1018
      55    H26     15.270999   22.614113   20.999134 H          1 MOL1         0.0783
      56    C17     17.106450   22.260643   19.876686 C.3        1 MOL1         0.1043
      57    H27     17.930472   21.537099   19.920224 H          1 MOL1         0.0783
      58    O14     17.639445   23.609572   19.849618 O.3        1 MOL1        -0.3740
      59    C18     16.349036   22.029418   18.550629 C.3        1 MOL1         0.0138
      60    H28     16.000356   20.989831   18.514935 H          1 MOL1         0.0794
      61    H29     17.048400   22.168104   17.715391 H          1 MOL1         0.0794
      62    O15     15.241461   22.926353   18.425099 O.3        1 MOL1        -0.5486
      63    H30     15.612709   23.832949   18.506029 H          1 MOL1         0.3769
      64    C19     23.482444   22.513825   22.063202 C.3        1 MOL1         0.2972
      65    H31     24.525430   22.629388   22.384090 H          1 MOL1         0.0751
      66    O16     23.289996   21.304945   21.299865 O.3        1 MOL1        -0.3740
      67    C20     22.533733   22.497211   23.291106 C.3        1 MOL1         0.1003
      68    H32     22.659544   23.456517   23.809900 H          1 MOL1         0.0783
      69    O17     22.841488   21.426716   24.198655 O.3        1 MOL1        -0.5519
      70    H33     23.776706   21.160354   24.028288 H          1 MOL1         0.3769
      71    C21     21.061741   22.380324   22.840418 C.3        1 MOL1         0.1053
      72    H34     20.934001   21.390888   22.388544 H          1 MOL1         0.0783
      73    O18     20.217032   22.500854   23.988632 O.3        1 MOL1        -0.5519
      74    H35     20.661807   21.952846   24.674001 H          1 MOL1         0.3769
      75    C22     20.695891   23.442543   21.774050 C.3        1 MOL1         0.1018
      76    H36     20.580603   24.414991   22.270774 H          1 MOL1         0.0783
      77    C23     21.766997   23.547860   20.651632 C.3        1 MOL1         0.1043
      78    H37     21.695408   22.651524   20.020995 H          1 MOL1         0.0783
      79    O19     23.093074   23.628611   21.232367 O.3        1 MOL1        -0.3740
      80    C24     21.577157   24.777667   19.735822 C.3        1 MOL1         0.0138
      81    H38     20.628402   24.675823   19.192401 H          1 MOL1         0.0794
      82    H39     22.381403   24.788855   18.988016 H          1 MOL1         0.0794
      83    O20     21.584422   25.992543   20.491131 O.3        1 MOL1        -0.5486
      84    H40     22.444191   26.016144   20.967379 H          1 MOL1         0.3769
      85    C25     25.127799   17.662833   20.709116 C.3        1 MOL1         0.2972
      86    H41     25.763838   16.807604   20.446557 H          1 MOL1         0.0751
      87    O21     23.779061   17.246732   21.013683 O.3        1 MOL1        -0.3740
      88    C26     25.720169   18.461904   21.898914 C.3        1 MOL1         0.1003
      89    H42     26.678766   18.875508   21.559202 H          1 MOL1         0.0783
      90    O22     25.960737   17.635487   23.046981 O.3        1 MOL1        -0.5519
      91    H43     25.075924   17.329286   23.369931 H          1 MOL1         0.3769
      92    C27     24.796006   19.647862   22.264454 C.3        1 MOL1         0.1053
      93    H44     23.853041   19.238044   22.652844 H          1 MOL1         0.0783
      94    O23     25.439877   20.430744   23.276382 O.3        1 MOL1        -0.5519
      95    H45     25.870077   19.773708   23.870174 H          1 MOL1         0.3769
      96    C28     24.466464   20.519525   21.017588 C.3        1 MOL1         0.1018
      97    H46     25.325051   21.162089   20.781040 H          1 MOL1         0.0783
      98    C29     24.115883   19.676274   19.759485 C.3        1 MOL1         0.1043
      99    H47     23.100211   19.278371   19.870794 H          1 MOL1         0.0783
     100    O24     25.059737   18.586860   19.603247 O.3        1 MOL1        -0.3740
     101    C30     24.154371   20.522039   18.470328 C.3        1 MOL1         0.0138
     102    H48     25.184475   20.854408   18.284403 H          1 MOL1         0.0794
     103    H49     23.532940   21.417366   18.606342 H          1 MOL1         0.0794
     104    O25     23.666318   19.753878   17.368879 O.3        1 MOL1        -0.5486
     105    H50     24.173511   18.911639   17.377699 H          1 MOL1         0.3769
     106    C31     21.404124   14.080980   22.180010 C.3        1 MOL1         0.2972
     107    H51     20.980668   13.133394   22.536907 H          1 MOL1         0.0751
     108    O26     20.404665   14.908161   21.551097 O.3        1 MOL1        -0.3740
     109    C32     22.041239   14.864699   23.355653 C.3        1 MOL1         0.1003
     110    H52     22.848245   14.239454   23.759406 H          1 MOL1         0.0783
     111    O27     21.089012   15.129914   24.397634 O.3        1 MOL1        -0.5519
     112    H53     20.312939   14.539825   24.239285 H          1 MOL1         0.3769
     113    C33     22.662822   16.190002   22.859059 C.3        1 MOL1         0.1053
     114    H54     21.848125   16.846275   22.531325 H          1 MOL1         0.0783
     115    O28     23.361242   16.803736   23.945480 O.3        1 MOL1        -0.5519
     116    H55     22.738632   16.737953   24.704445 H          1 MOL1         0.3769
     117    C34     23.612917   15.966177   21.653740 C.3        1 MOL1         0.1018
     118    H56     24.564899   15.562103   22.022586 H          1 MOL1         0.0783
     119    C35     23.012162   15.009819   20.584182 C.3        1 MOL1         0.1043
     120    H57     22.222924   15.551073   20.046078 H          1 MOL1         0.0783
     121    O29     22.448043   13.832369   21.214955 O.3        1 MOL1        -0.3740
     122    C36     24.045470   14.536696   19.537771 C.3        1 MOL1         0.0138
     123    H58     24.400615   15.405476   18.967787 H          1 MOL1         0.0794
     124    H59     23.546810   13.862716   18.828375 H          1 MOL1         0.0794
     125    O30     25.148007   13.872862   20.162237 O.3        1 MOL1        -0.5486
     126    H60     24.765749   13.125710   20.674346 H          1 MOL1         0.3769
     127    C1      20.156857   18.526172   19.399016 C.3        1 MOL1        -0.2400
     128    H1      19.128193   18.400811   19.035668 H          1 MOL1         0.0971
     129    H2      20.708985   19.114616   18.654374 H          1 MOL1         0.0971
     130    H3      20.622910   17.533640   19.452558 H          1 MOL1         0.0971
     131    C2      20.183466   19.225036   20.774334 C.3        1 MOL1        -0.1385
     132    H4      19.755917   20.232299   20.683350 H          1 MOL1         0.0960
     133    H5      21.225103   19.349357   21.098347 H          1 MOL1         0.0960
     134    C3      19.410165   18.423753   21.841276 C.3        1 MOL1        -0.1409
     135    H6      18.356327   18.346263   21.549640 H          1 MOL1         0.0960
     136    H7      19.802293   17.402192   21.882231 H          1 MOL1         0.0960
     137    C4      19.512979   19.067617   23.239742 C.3        1 MOL1        -0.1409
     138    H8      19.000286   20.038116   23.229572 H          1 MOL1         0.0960
     139    H9      20.567338   19.263122   23.482135 H          1 MOL1         0.0960
     140    C5      18.905455   18.166870   24.336149 C.3        1 MOL1        -0.1409
     141    H10     17.879770   17.884665   24.069018 H          1 MOL1         0.0960
     142    H11     19.480607   17.234294   24.399634 H          1 MOL1         0.0960
     143    C6      18.904628   18.863113   25.712444 C.3        1 MOL1        -0.1450
     144    H12     18.326521   19.795328   25.654374 H          1 MOL1         0.0960
     145    H13     19.932100   19.135338   25.989095 H          1 MOL1         0.0960
     146    C7      18.303483   17.950914   26.795157 C.3        1 MOL1         0.0172
     147    H14     17.277570   17.686208   26.524682 H          1 MOL1         0.0934
     148    H15     18.889203   17.030197   26.866252 H          1 MOL1         0.0934
     149    N1      18.275336   18.596497   28.165314 N.4        1 MOL1        -0.5956
     150    H16     19.215989   18.845447   28.487726 H          1 MOL1         0.3624
     151    H17     17.871356   17.972255   28.871688 H          1 MOL1         0.3624
     152    H18     17.716441   19.455815   28.169349 H          1 MOL1         0.3624
@<TRIPOS>BOND
    1     1     2    1
    2     1     3    1
    3     1     4    1
    4     4     5    1
    5     4     6    1
    6     6     7    1
    7     4     8    1
    8     8     9    1
    9     8    10    1
   10    10    11    1
   11     8    12    1
   12    12    13    1
   13    12    14    1
   14    14    15    1
   15     1    16    1
   16    14    16    1
   17    14    17    1
   18    17    18    1
   19    17    19    1
   20    17    20    1
   21    20    21    1
   22    22    23    1
   23    22    24    1
   24    22    25    1
   25    25    26    1
   26    25    27    1
   27    27    28    1
   28    25    29    1
   29    29    30    1
   30    29    31    1
   31    31    32    1
   32     3    33    1
   33    29    33    1
   34    33    34    1
   35    33    35    1
   36    35    36    1
   37    22    37    1
   38    35    37    1
   39    35    38    1
   40    38    39    1
   41    38    40    1
   42    38    41    1
   43    41    42    1
   44    43    44    1
   45    43    45    1
   46    43    46    1
   47    46    47    1
   48    46    48    1
   49    48    49    1
   50    46    50    1
   51    50    51    1
   52    50    52    1
   53    52    53    1
   54    24    54    1
   55    50    54    1
   56    54    55    1
   57    54    56    1
   58    56    57    1
   59    43    58    1
   60    56    58    1
   61    56    59    1
   62    59    60    1
   63    59    61    1
   64    59    62    1
   65    62    63    1
   66    64    65    1
   67    64    66    1
   68    64    67    1
   69    67    68    1
   70    67    69    1
   71    69    70    1
   72    67    71    1
   73    71    72    1
   74    71    73    1
   75    73    74    1
   76    45    75    1
   77    71    75    1
   78    75    76    1
   79    75    77    1
   80    77    78    1
   81    64    79    1
   82    77    79    1
   83    77    80    1
   84    80    81    1
   85    80    82    1
   86    80    83    1
   87    83    84    1
   88    85    86    1
   89    85    87    1
   90    85    88    1
   91    88    89    1
   92    88    90    1
   93    90    91    1
   94    88    92    1
   95    92    93    1
   96    92    94    1
   97    94    95    1
   98    66    96    1
   99    92    96    1
  100    96    97    1
  101    96    98    1
  102    98    99    1
  103    85   100    1
  104    98   100    1
  105    98   101    1
  106   101   102    1
  107   101   103    1
  108   101   104    1
  109   104   105    1
  110   106   107    1
  111    12   108    1
  112   106   108    1
  113   106   109    1
  114   109   110    1
  115   109   111    1
  116   111   112    1
  117   109   113    1
  118   113   114    1
  119   113   115    1
  120   115   116    1
  121    87   117    1
  122   113   117    1
  123   117   118    1
  124   117   119    1
  125   119   120    1
  126   106   121    1
  127   119   121    1
  128   119   122    1
  129   122   123    1
  130   122   124    1
  131   122   125    1
  132   125   126    1
  133   127   128    1
  134   127   129    1
  135   127   130    1
  136   127   131    1
  137   131   132    1
  138   131   133    1
  139   131   134    1
  140   134   135    1
  141   134   136    1
  142   134   137    1
  143   137   138    1
  144   137   139    1
  145   137   140    1
  146   140   141    1
  147   140   142    1
  148   140   143    1
  149   143   144    1
  150   143   145    1
  151   143   146    1
  152   146   147    1
  153   146   148    1
  154   146   149    1
  155   149   150    1
  156   149   151    1
  157   149   152    1
@<TRIPOS>SUBSTRUCTURE
       1 MOL1            1 RESIDUE      1      MOL     
       2 MOL1          152 RESIDUE      1      MOL     
@<SCITEGIC>MOL_PROPERTY
VM2 Rank
SciTegic.value.IntegerValue
5

@<SCITEGIC>MOL_PROPERTY
Conf_Id
SciTegic.value.IntegerValue
17415

@<SCITEGIC>MOL_PROPERTY
Probability
SciTegic.value.DoubleValue
1.21

@<SCITEGIC>MOL_PROPERTY
Sum Probability
SciTegic.value.DoubleValue
8.05

@<SCITEGIC>MOL_PROPERTY
Delta G
SciTegic.value.DoubleValue
0.423

@<SCITEGIC>MOL_PROPERTY
G
SciTegic.value.DoubleValue
566.792

@<SCITEGIC>MOL_PROPERTY
E
SciTegic.value.DoubleValue
365.655

@<SCITEGIC>MOL_PROPERTY
-TS
SciTegic.value.DoubleValue
201.137

@<SCITEGIC>MOL_PROPERTY
U+W
SciTegic.value.DoubleValue
231.519

@<SCITEGIC>MOL_PROPERTY
U
SciTegic.value.DoubleValue
316.597

@<SCITEGIC>MOL_PROPERTY
W
SciTegic.value.DoubleValue
-85.078

@<SCITEGIC>MOL_PROPERTY
W(PB)
SciTegic.value.DoubleValue
-91.328

@<SCITEGIC>MOL_PROPERTY
W(SA)
SciTegic.value.DoubleValue
6.250

@<SCITEGIC>MOL_PROPERTY
Valence
SciTegic.value.DoubleValue
146.875

@<SCITEGIC>MOL_PROPERTY
Coulomb
SciTegic.value.DoubleValue
194.966

@<SCITEGIC>MOL_PROPERTY
VdW
SciTegic.value.DoubleValue
-25.244

@<SCITEGIC>MOL_PROPERTY
VdW6
SciTegic.value.DoubleValue
-174.923

@<SCITEGIC>MOL_PROPERTY
VdW12
SciTegic.value.DoubleValue
149.679

@<SCITEGIC>MOL_PROPERTY
Bond
SciTegic.value.DoubleValue
4.352

@<SCITEGIC>MOL_PROPERTY
Angle
SciTegic.value.DoubleValue
9.617

@<SCITEGIC>MOL_PROPERTY
Pdih
SciTegic.value.DoubleValue
132.906

@<SCITEGIC>MOL_PROPERTY
Idih
SciTegic.value.DoubleValue
0.000

@<SCITEGIC>MOL_PROPERTY
Tether
SciTegic.value.DoubleValue
0.000

@<TRIPOS>MOLECULE
CD_guest-s14_vm2_single.mol2 : vm2 host+ligand conformer 6
         152         157           2
SMALL
USER_CHARGES
 
@<TRIPOS>ATOM
       1    C1      16.298348   15.149865   21.201047 C.3        1 MOL1         0.2972
       2    H1      15.257040   14.869261   20.998275 H          1 MOL1         0.0751
       3    O1      16.447947   16.572253   21.375894 O.3        1 MOL1        -0.3740
       4    C2      16.790550   14.467601   22.501523 C.3        1 MOL1         0.1003
       5    H2      16.696251   13.383043   22.360345 H          1 MOL1         0.0783
       6    O2      15.988411   14.869344   23.624201 O.3        1 MOL1        -0.5519
       7    H3      15.670780   15.789790   23.445146 H          1 MOL1         0.3769
       8    C3      18.282227   14.786309   22.765495 C.3        1 MOL1         0.1053
       9    H4      18.360773   15.855789   22.995277 H          1 MOL1         0.0783
      10    O3      18.728414   14.016819   23.887029 O.3        1 MOL1        -0.5519
      11    H5      17.985246   14.060971   24.530958 H          1 MOL1         0.3769
      12    C4      19.150816   14.495393   21.510712 C.3        1 MOL1         0.1018
      13    H6      19.232440   13.410336   21.361230 H          1 MOL1         0.0783
      14    C5      18.544610   15.122203   20.228931 C.3        1 MOL1         0.1043
      15    H7      18.629832   16.214834   20.286287 H          1 MOL1         0.0783
      16    O4      17.156394   14.724142   20.121806 O.3        1 MOL1        -0.3740
      17    C6      19.266989   14.642112   18.952830 C.3        1 MOL1         0.0138
      18    H8      19.149819   13.554445   18.855962 H          1 MOL1         0.0794
      19    H9      20.339781   14.854355   19.042765 H          1 MOL1         0.0794
      20    O5      18.735909   15.308335   17.805955 O.3        1 MOL1        -0.5486
      21    H10     17.775446   15.103070   17.792496 H          1 MOL1         0.3769
      22    C7      14.650256   20.228954   20.703162 C.3        1 MOL1         0.2972
      23    H11     13.998053   21.070293   20.435742 H          1 MOL1         0.0751
      24    O6      15.978245   20.664039   21.062618 O.3        1 MOL1        -0.3740
      25    C8      14.067363   19.434013   21.898411 C.3        1 MOL1         0.1003
      26    H12     13.104626   19.013044   21.580585 H          1 MOL1         0.0783
      27    O7      13.857336   20.281493   23.038459 O.3        1 MOL1        -0.5519
      28    H13     14.669717   20.837551   23.152000 H          1 MOL1         0.3769
      29    C9      15.009705   18.261957   22.257751 C.3        1 MOL1         0.1053
      30    H14     15.954464   18.692567   22.609508 H          1 MOL1         0.0783
      31    O8      14.427617   17.466170   23.294738 O.3        1 MOL1        -0.5519
      32    H15     14.056013   18.113883   23.934466 H          1 MOL1         0.3769
      33    C10     15.310979   17.381692   21.019509 C.3        1 MOL1         0.1018
      34    H16     14.422239   16.775092   20.801482 H          1 MOL1         0.0783
      35    C11     15.690848   18.217989   19.763547 C.3        1 MOL1         0.1043
      36    H17     16.703557   18.617088   19.899230 H          1 MOL1         0.0783
      37    O9      14.759405   19.314356   19.592953 O.3        1 MOL1        -0.3740
      38    C12     15.680604   17.398548   18.455088 C.3        1 MOL1         0.0138
      39    H18     16.435320   16.607026   18.523149 H          1 MOL1         0.0794
      40    H19     15.970893   18.055507   17.624356 H          1 MOL1         0.0794
      41    O10     14.390481   16.830888   18.211108 O.3        1 MOL1        -0.5486
      42    H20     13.757308   17.582767   18.205657 H          1 MOL1         0.3769
      43    C13     18.426886   23.990476   21.256793 C.3        1 MOL1         0.2972
      44    H21     18.868017   24.995672   21.248981 H          1 MOL1         0.0751
      45    O11     19.447579   22.967803   21.236830 O.3        1 MOL1        -0.3740
      46    C14     17.502973   23.794872   22.489719 C.3        1 MOL1         0.1003
      47    H22     16.677666   24.511878   22.389661 H          1 MOL1         0.0783
      48    O12     18.182754   24.050159   23.727186 O.3        1 MOL1        -0.5519
      49    H23     18.890974   23.363260   23.812127 H          1 MOL1         0.3769
      50    C15     16.897792   22.371642   22.480744 C.3        1 MOL1         0.1053
      51    H24     17.715094   21.649948   22.603714 H          1 MOL1         0.0783
      52    O13     15.971447   22.240224   23.563007 O.3        1 MOL1        -0.5519
      53    H25     16.414382   22.663732   24.331962 H          1 MOL1         0.3769
      54    C16     16.185946   22.086099   21.134580 C.3        1 MOL1         0.1018
      55    H26     15.238866   22.641668   21.122426 H          1 MOL1         0.0783
      56    C17     17.046367   22.484628   19.902380 C.3        1 MOL1         0.1043
      57    H27     17.861207   21.755967   19.798884 H          1 MOL1         0.0783
      58    O14     17.601858   23.810902   20.086112 O.3        1 MOL1        -0.3740
      59    C18     16.248421   22.489644   18.579323 C.3        1 MOL1         0.0138
      60    H28     15.894735   21.471743   18.368908 H          1 MOL1         0.0794
      61    H29     16.922584   22.776641   17.761303 H          1 MOL1         0.0794
      62    O15     15.140268   23.392021   18.649012 O.3        1 MOL1        -0.5486
      63    H30     15.517347   24.273477   18.866598 H          1 MOL1         0.3769
      64    C19     23.493362   22.393265   22.087411 C.3        1 MOL1         0.2972
      65    H31     24.526705   22.516487   22.433971 H          1 MOL1         0.0751
      66    O16     23.360598   21.264905   21.197477 O.3        1 MOL1        -0.3740
      67    C20     22.528605   22.209451   23.291390 C.3        1 MOL1         0.1003
      68    H32     22.617198   23.108858   23.914668 H          1 MOL1         0.0783
      69    O17     22.856933   21.057216   24.084219 O.3        1 MOL1        -0.5519
      70    H33     23.825242   20.900506   23.980089 H          1 MOL1         0.3769
      71    C21     21.066111   22.102457   22.805889 C.3        1 MOL1         0.1053
      72    H34     20.974863   21.183386   22.216706 H          1 MOL1         0.0783
      73    O18     20.206872   22.036241   23.947455 O.3        1 MOL1        -0.5519
      74    H35     20.662650   21.410789   24.554586 H          1 MOL1         0.3769
      75    C22     20.689357   23.295566   21.894065 C.3        1 MOL1         0.1018
      76    H36     20.598799   24.196691   22.515093 H          1 MOL1         0.0783
      77    C23     21.752060   23.528953   20.784449 C.3        1 MOL1         0.1043
      78    H37     21.695643   22.697325   20.069198 H          1 MOL1         0.0783
      79    O19     23.076262   23.576910   21.372210 O.3        1 MOL1        -0.3740
      80    C24     21.538178   24.841843   19.998166 C.3        1 MOL1         0.0138
      81    H38     20.587605   24.780526   19.451684 H          1 MOL1         0.0794
      82    H39     22.337716   24.941284   19.251869 H          1 MOL1         0.0794
      83    O20     21.531143   25.974064   20.872797 O.3        1 MOL1        -0.5486
      84    H40     22.393026   25.962270   21.345596 H          1 MOL1         0.3769
      85    C25     25.234958   17.653488   20.567447 C.3        1 MOL1         0.2972
      86    H41     25.860565   16.794752   20.291854 H          1 MOL1         0.0751
      87    O21     23.889375   17.244849   20.900747 O.3        1 MOL1        -0.3740
      88    C26     25.861548   18.459822   21.733276 C.3        1 MOL1         0.1003
      89    H42     26.796127   18.893976   21.354361 H          1 MOL1         0.0783
      90    O22     26.171382   17.637684   22.867350 O.3        1 MOL1        -0.5519
      91    H43     25.306973   17.343224   23.249827 H          1 MOL1         0.3769
      92    C27     24.926737   19.625899   22.133119 C.3        1 MOL1         0.1053
      93    H44     23.998462   19.195362   22.531874 H          1 MOL1         0.0783
      94    O23     25.578266   20.400442   23.146756 O.3        1 MOL1        -0.5519
      95    H45     26.047613   19.741396   23.707877 H          1 MOL1         0.3769
      96    C28     24.555581   20.507604   20.902704 C.3        1 MOL1         0.1018
      97    H46     25.394899   21.174732   20.665570 H          1 MOL1         0.0783
      98    C29     24.207149   19.670992   19.637319 C.3        1 MOL1         0.1043
      99    H47     23.192431   19.271191   19.749557 H          1 MOL1         0.0783
     100    O24     25.147679   18.579632   19.464338 O.3        1 MOL1        -0.3740
     101    C30     24.236527   20.526920   18.354734 C.3        1 MOL1         0.0138
     102    H48     25.264038   20.866825   18.168106 H          1 MOL1         0.0794
     103    H49     23.610000   21.417308   18.500152 H          1 MOL1         0.0794
     104    O25     23.749255   19.764460   17.248874 O.3        1 MOL1        -0.5486
     105    H50     24.261831   18.925320   17.249389 H          1 MOL1         0.3769
     106    C31     21.440142   14.257451   22.322943 C.3        1 MOL1         0.2972
     107    H51     20.992220   13.349242   22.746363 H          1 MOL1         0.0751
     108    O26     20.446897   15.097008   21.698461 O.3        1 MOL1        -0.3740
     109    C32     22.154667   15.063126   23.434580 C.3        1 MOL1         0.1003
     110    H52     22.936488   14.414382   23.850587 H          1 MOL1         0.0783
     111    O27     21.244726   15.434551   24.483359 O.3        1 MOL1        -0.5519
     112    H53     20.422853   14.901109   24.356509 H          1 MOL1         0.3769
     113    C33     22.834751   16.323410   22.853724 C.3        1 MOL1         0.1053
     114    H54     22.048965   17.012442   22.526873 H          1 MOL1         0.0783
     115    O28     23.604581   16.936295   23.890202 O.3        1 MOL1        -0.5519
     116    H55     23.002674   16.948504   24.668566 H          1 MOL1         0.3769
     117    C34     23.718040   16.004936   21.617832 C.3        1 MOL1         0.1018
     118    H56     24.674322   15.584404   21.955648 H          1 MOL1         0.0783
     119    C35     23.028679   15.026572   20.624974 C.3        1 MOL1         0.1043
     120    H57     22.246376   15.580318   20.089925 H          1 MOL1         0.0783
     121    O29     22.431385   13.911793   21.332942 O.3        1 MOL1        -0.3740
     122    C36     23.996748   14.452450   19.567039 C.3        1 MOL1         0.0138
     123    H58     24.381838   15.275690   18.950690 H          1 MOL1         0.0794
     124    H59     23.436604   13.780772   18.902780 H          1 MOL1         0.0794
     125    O30     25.079703   13.750796   20.184302 O.3        1 MOL1        -0.5486
     126    H60     24.671976   13.053846   20.745307 H          1 MOL1         0.3769
     127    C1      20.107643   19.246065   19.305625 C.3        1 MOL1        -0.2400
     128    H1      19.912736   20.326027   19.335438 H          1 MOL1         0.0971
     129    H2      20.939687   19.073741   18.610044 H          1 MOL1         0.0971
     130    H3      19.219710   18.744981   18.898720 H          1 MOL1         0.0971
     131    C2      20.452045   18.708846   20.709736 C.3        1 MOL1        -0.1385
     132    H4      21.359341   19.204701   21.079247 H          1 MOL1         0.0960
     133    H5      20.685183   17.637674   20.643666 H          1 MOL1         0.0960
     134    C3      19.296267   18.933679   21.707841 C.3        1 MOL1        -0.1409
     135    H6      19.007370   19.992525   21.705526 H          1 MOL1         0.0960
     136    H7      18.416629   18.366151   21.383859 H          1 MOL1         0.0960
     137    C4      19.685868   18.506592   23.138646 C.3        1 MOL1        -0.1409
     138    H8      20.557730   19.084499   23.475288 H          1 MOL1         0.0960
     139    H9      19.988198   17.453639   23.132737 H          1 MOL1         0.0960
     140    C5      18.522927   18.684853   24.135907 C.3        1 MOL1        -0.1409
     141    H10     18.185871   19.730964   24.133624 H          1 MOL1         0.0960
     142    H11     17.673326   18.068945   23.815517 H          1 MOL1         0.0960
     143    C6      18.930813   18.270837   25.564568 C.3        1 MOL1        -0.1450
     144    H12     19.769042   18.893034   25.905434 H          1 MOL1         0.0960
     145    H13     19.282732   17.230269   25.560478 H          1 MOL1         0.0960
     146    C7      17.751618   18.409037   26.542080 C.3        1 MOL1         0.0172
     147    H14     17.412032   19.448135   26.564843 H          1 MOL1         0.0934
     148    H15     16.920882   17.782192   26.206230 H          1 MOL1         0.0934
     149    N1      18.105383   17.999042   27.956717 N.4        1 MOL1        -0.5956
     150    H16     18.410814   17.021536   28.003004 H          1 MOL1         0.3624
     151    H17     17.306095   18.094913   28.592088 H          1 MOL1         0.3624
     152    H18     18.864354   18.571634   28.339830 H          1 MOL1         0.3624
@<TRIPOS>BOND
    1     1     2    1
    2     1     3    1
    3     1     4    1
    4     4     5    1
    5     4     6    1
    6     6     7    1
    7     4     8    1
    8     8     9    1
    9     8    10    1
   10    10    11    1
   11     8    12    1
   12    12    13    1
   13    12    14    1
   14    14    15    1
   15     1    16    1
   16    14    16    1
   17    14    17    1
   18    17    18    1
   19    17    19    1
   20    17    20    1
   21    20    21    1
   22    22    23    1
   23    22    24    1
   24    22    25    1
   25    25    26    1
   26    25    27    1
   27    27    28    1
   28    25    29    1
   29    29    30    1
   30    29    31    1
   31    31    32    1
   32     3    33    1
   33    29    33    1
   34    33    34    1
   35    33    35    1
   36    35    36    1
   37    22    37    1
   38    35    37    1
   39    35    38    1
   40    38    39    1
   41    38    40    1
   42    38    41    1
   43    41    42    1
   44    43    44    1
   45    43    45    1
   46    43    46    1
   47    46    47    1
   48    46    48    1
   49    48    49    1
   50    46    50    1
   51    50    51    1
   52    50    52    1
   53    52    53    1
   54    24    54    1
   55    50    54    1
   56    54    55    1
   57    54    56    1
   58    56    57    1
   59    43    58    1
   60    56    58    1
   61    56    59    1
   62    59    60    1
   63    59    61    1
   64    59    62    1
   65    62    63    1
   66    64    65    1
   67    64    66    1
   68    64    67    1
   69    67    68    1
   70    67    69    1
   71    69    70    1
   72    67    71    1
   73    71    72    1
   74    71    73    1
   75    73    74    1
   76    45    75    1
   77    71    75    1
   78    75    76    1
   79    75    77    1
   80    77    78    1
   81    64    79    1
   82    77    79    1
   83    77    80    1
   84    80    81    1
   85    80    82    1
   86    80    83    1
   87    83    84    1
   88    85    86    1
   89    85    87    1
   90    85    88    1
   91    88    89    1
   92    88    90    1
   93    90    91    1
   94    88    92    1
   95    92    93    1
   96    92    94    1
   97    94    95    1
   98    66    96    1
   99    92    96    1
  100    96    97    1
  101    96    98    1
  102    98    99    1
  103    85   100    1
  104    98   100    1
  105    98   101    1
  106   101   102    1
  107   101   103    1
  108   101   104    1
  109   104   105    1
  110   106   107    1
  111    12   108    1
  112   106   108    1
  113   106   109    1
  114   109   110    1
  115   109   111    1
  116   111   112    1
  117   109   113    1
  118   113   114    1
  119   113   115    1
  120   115   116    1
  121    87   117    1
  122   113   117    1
  123   117   118    1
  124   117   119    1
  125   119   120    1
  126   106   121    1
  127   119   121    1
  128   119   122    1
  129   122   123    1
  130   122   124    1
  131   122   125    1
  132   125   126    1
  133   127   128    1
  134   127   129    1
  135   127   130    1
  136   127   131    1
  137   131   132    1
  138   131   133    1
  139   131   134    1
  140   134   135    1
  141   134   136    1
  142   134   137    1
  143   137   138    1
  144   137   139    1
  145   137   140    1
  146   140   141    1
  147   140   142    1
  148   140   143    1
  149   143   144    1
  150   143   145    1
  151   143   146    1
  152   146   147    1
  153   146   148    1
  154   146   149    1
  155   149   150    1
  156   149   151    1
  157   149   152    1
@<TRIPOS>SUBSTRUCTURE
       1 MOL1            1 RESIDUE      1      MOL     
       2 MOL1          152 RESIDUE      1      MOL     
@<SCITEGIC>MOL_PROPERTY
VM2 Rank
SciTegic.value.IntegerValue
6

@<SCITEGIC>MOL_PROPERTY
Conf_Id
SciTegic.value.IntegerValue
6138

@<SCITEGIC>MOL_PROPERTY
Probability
SciTegic.value.DoubleValue
1.17

@<SCITEGIC>MOL_PROPERTY
Sum Probability
SciTegic.value.DoubleValue
9.22

@<SCITEGIC>MOL_PROPERTY
Delta G
SciTegic.value.DoubleValue
0.442

@<SCITEGIC>MOL_PROPERTY
G
SciTegic.value.DoubleValue
566.811

@<SCITEGIC>MOL_PROPERTY
E
SciTegic.value.DoubleValue
364.647

@<SCITEGIC>MOL_PROPERTY
-TS
SciTegic.value.DoubleValue
202.164

@<SCITEGIC>MOL_PROPERTY
U+W
SciTegic.value.DoubleValue
230.511

@<SCITEGIC>MOL_PROPERTY
U
SciTegic.value.DoubleValue
314.826

@<SCITEGIC>MOL_PROPERTY
W
SciTegic.value.DoubleValue
-84.315

@<SCITEGIC>MOL_PROPERTY
W(PB)
SciTegic.value.DoubleValue
-90.586

@<SCITEGIC>MOL_PROPERTY
W(SA)
SciTegic.value.DoubleValue
6.271

@<SCITEGIC>MOL_PROPERTY
Valence
SciTegic.value.DoubleValue
146.469

@<SCITEGIC>MOL_PROPERTY
Coulomb
SciTegic.value.DoubleValue
194.258

@<SCITEGIC>MOL_PROPERTY
VdW
SciTegic.value.DoubleValue
-25.902

@<SCITEGIC>MOL_PROPERTY
VdW6
SciTegic.value.DoubleValue
-178.221

@<SCITEGIC>MOL_PROPERTY
VdW12
SciTegic.value.DoubleValue
152.320

@<SCITEGIC>MOL_PROPERTY
Bond
SciTegic.value.DoubleValue
4.443

@<SCITEGIC>MOL_PROPERTY
Angle
SciTegic.value.DoubleValue
10.174

@<SCITEGIC>MOL_PROPERTY
Pdih
SciTegic.value.DoubleValue
131.852

@<SCITEGIC>MOL_PROPERTY
Idih
SciTegic.value.DoubleValue
0.000

@<SCITEGIC>MOL_PROPERTY
Tether
SciTegic.value.DoubleValue
0.000

@<TRIPOS>MOLECULE
CD_guest-s14_vm2_single.mol2 : vm2 host+ligand conformer 7
         152         157           2
SMALL
USER_CHARGES
 
@<TRIPOS>ATOM
       1    C1      16.344955   15.162803   21.014111 C.3        1 MOL1         0.2972
       2    H1      15.258431   15.041752   20.914718 H          1 MOL1         0.0751
       3    O1      16.721573   16.557970   21.002947 O.3        1 MOL1        -0.3740
       4    C2      16.867345   14.480007   22.307730 C.3        1 MOL1         0.1003
       5    H2      16.666845   13.405354   22.206917 H          1 MOL1         0.0783
       6    O2      16.203483   14.960002   23.485655 O.3        1 MOL1        -0.5519
       7    H3      16.442506   15.916404   23.579096 H          1 MOL1         0.3769
       8    C3      18.397792   14.667075   22.427367 C.3        1 MOL1         0.1053
       9    H4      18.604673   15.737652   22.549824 H          1 MOL1         0.0783
      10    O3      18.878558   13.949087   23.567525 O.3        1 MOL1        -0.5519
      11    H5      18.226167   14.133155   24.279806 H          1 MOL1         0.3769
      12    C4      19.113233   14.170447   21.146205 C.3        1 MOL1         0.1018
      13    H6      19.103280   13.072443   21.150886 H          1 MOL1         0.0783
      14    C5      18.447912   14.697367   19.843533 C.3        1 MOL1         0.1043
      15    H7      18.681911   15.765371   19.742918 H          1 MOL1         0.0783
      16    O4      17.010576   14.519391   19.906614 O.3        1 MOL1        -0.3740
      17    C6      18.953411   13.982257   18.570635 C.3        1 MOL1         0.0138
      18    H8      20.026860   14.178788   18.450036 H          1 MOL1         0.0794
      19    H9      18.442831   14.411206   17.698098 H          1 MOL1         0.0794
      20    O5      18.715211   12.573249   18.642008 O.3        1 MOL1        -0.5486
      21    H10     17.747686   12.465070   18.778737 H          1 MOL1         0.3769
      22    C7      15.134161   20.358069   21.691679 C.3        1 MOL1         0.2972
      23    H11     14.484118   21.192310   21.982692 H          1 MOL1         0.0751
      24    O6      16.239513   20.803841   20.877398 O.3        1 MOL1        -0.3740
      25    C8      15.686272   19.630005   22.948289 C.3        1 MOL1         0.1003
      26    H12     14.819641   19.263114   23.513622 H          1 MOL1         0.0783
      27    O7      16.458691   20.500885   23.790396 O.3        1 MOL1        -0.5519
      28    H13     16.118483   21.416121   23.649901 H          1 MOL1         0.3769
      29    C9      16.544440   18.412529   22.539770 C.3        1 MOL1         0.1053
      30    H14     17.427524   18.787416   22.010639 H          1 MOL1         0.0783
      31    O8      16.944148   17.715890   23.723300 O.3        1 MOL1        -0.5519
      32    H15     17.212148   18.431104   24.343063 H          1 MOL1         0.3769
      33    C10     15.770519   17.477944   21.578289 C.3        1 MOL1         0.1018
      34    H16     14.989853   16.956952   22.148344 H          1 MOL1         0.0783
      35    C11     15.122954   18.268011   20.407401 C.3        1 MOL1         0.1043
      36    H17     15.922865   18.629883   19.747584 H          1 MOL1         0.0783
      37    O9      14.375055   19.394397   20.929032 O.3        1 MOL1        -0.3740
      38    C12     14.156821   17.416269   19.553709 C.3        1 MOL1         0.0138
      39    H18     14.726521   16.620037   19.056287 H          1 MOL1         0.0794
      40    H19     13.727508   18.050838   18.766823 H          1 MOL1         0.0794
      41    O10     13.117595   16.849614   20.357398 O.3        1 MOL1        -0.5486
      42    H20     12.660748   17.605288   20.789567 H          1 MOL1         0.3769
      43    C13     18.459236   24.226112   20.368946 C.3        1 MOL1         0.2972
      44    H21     18.913927   25.193643   20.120058 H          1 MOL1         0.0751
      45    O11     19.454560   23.263682   20.783256 O.3        1 MOL1        -0.3740
      46    C14     17.364951   24.378453   21.455895 C.3        1 MOL1         0.1003
      47    H22     16.551434   24.965945   21.010271 H          1 MOL1         0.0783
      48    O12     17.839282   25.070198   22.619864 O.3        1 MOL1        -0.5519
      49    H23     18.495566   24.472334   23.058114 H          1 MOL1         0.3769
      50    C15     16.795141   22.990224   21.830845 C.3        1 MOL1         0.1053
      51    H24     17.602902   22.405321   22.290535 H          1 MOL1         0.0783
      52    O13     15.733343   23.175409   22.774606 O.3        1 MOL1        -0.5519
      53    H25     16.029913   23.918806   23.348031 H          1 MOL1         0.3769
      54    C16     16.301367   22.215612   20.572153 C.3        1 MOL1         0.1018
      55    H26     15.314896   22.595811   20.275671 H          1 MOL1         0.0783
      56    C17     17.274638   22.333478   19.360938 C.3        1 MOL1         0.1043
      57    H27     18.115780   21.649713   19.527938 H          1 MOL1         0.0783
      58    O14     17.783868   23.684727   19.215249 O.3        1 MOL1        -0.3740
      59    C18     16.613765   21.932230   18.023973 C.3        1 MOL1         0.0138
      60    H28     16.243680   20.901113   18.102850 H          1 MOL1         0.0794
      61    H29     17.376276   21.949869   17.233869 H          1 MOL1         0.0794
      62    O15     15.539960   22.818849   17.695783 O.3        1 MOL1        -0.5486
      63    H30     15.919787   23.725645   17.715488 H          1 MOL1         0.3769
      64    C19     23.154952   22.656701   22.487361 C.3        1 MOL1         0.2972
      65    H31     24.131954   22.730872   22.982002 H          1 MOL1         0.0751
      66    O16     22.971755   21.367977   21.865469 O.3        1 MOL1        -0.3740
      67    C20     22.021485   22.884482   23.516329 C.3        1 MOL1         0.1003
      68    H32     22.160604   23.891391   23.931004 H          1 MOL1         0.0783
      69    O17     22.079352   21.924088   24.584189 O.3        1 MOL1        -0.5519
      70    H33     22.963739   21.486755   24.532895 H          1 MOL1         0.3769
      71    C21     20.636114   22.833091   22.833130 C.3        1 MOL1         0.1053
      72    H34     20.457406   21.803893   22.504828 H          1 MOL1         0.0783
      73    O18     19.647061   23.204819   23.795485 O.3        1 MOL1        -0.5519
      74    H35     19.879748   22.687105   24.599275 H          1 MOL1         0.3769
      75    C22     20.560450   23.741785   21.577209 C.3        1 MOL1         0.1018
      76    H36     20.424433   24.784162   21.894123 H          1 MOL1         0.0783
      77    C23     21.821031   23.622452   20.674669 C.3        1 MOL1         0.1043
      78    H37     21.772215   22.660897   20.147614 H          1 MOL1         0.0783
      79    O19     23.030221   23.674202   21.471869 O.3        1 MOL1        -0.3740
      80    C24     21.910296   24.733833   19.605558 C.3        1 MOL1         0.0138
      81    H38     21.052277   24.645857   18.925849 H          1 MOL1         0.0794
      82    H39     22.818394   24.577491   19.008003 H          1 MOL1         0.0794
      83    O20     21.929960   26.030732   20.208712 O.3        1 MOL1        -0.5486
      84    H40     22.694779   26.035440   20.826567 H          1 MOL1         0.3769
      85    C25     25.040606   17.747643   21.580078 C.3        1 MOL1         0.2972
      86    H41     25.818353   16.985739   21.442934 H          1 MOL1         0.0751
      87    O21     23.727520   17.164010   21.684015 O.3        1 MOL1        -0.3740
      88    C26     25.297220   18.544676   22.883129 C.3        1 MOL1         0.1003
      89    H42     26.288307   19.008558   22.795650 H          1 MOL1         0.0783
      90    O22     25.282776   17.673333   24.025802 O.3        1 MOL1        -0.5519
      91    H43     24.646895   16.940246   23.829484 H          1 MOL1         0.3769
      92    C27     24.254503   19.676019   23.056162 C.3        1 MOL1         0.1053
      93    H44     23.277589   19.208666   23.231882 H          1 MOL1         0.0783
      94    O23     24.619889   20.472421   24.188165 O.3        1 MOL1        -0.5519
      95    H45     24.912432   19.822007   24.866620 H          1 MOL1         0.3769
      96    C28     24.152048   20.546319   21.773004 C.3        1 MOL1         0.1018
      97    H46     25.057330   21.159399   21.668407 H          1 MOL1         0.0783
      98    C29     23.997410   19.678611   20.497679 C.3        1 MOL1         0.1043
      99    H47     23.009603   19.200993   20.504283 H          1 MOL1         0.0783
     100    O24     25.045627   18.679885   20.478638 O.3        1 MOL1        -0.3740
     101    C30     24.125803   20.514623   19.207343 C.3        1 MOL1         0.0138
     102    H48     25.130564   20.955206   19.157581 H          1 MOL1         0.0794
     103    H49     23.402191   21.338898   19.236717 H          1 MOL1         0.0794
     104    O25     23.879176   19.694679   18.063545 O.3        1 MOL1        -0.5486
     105    H50     24.540211   18.969291   18.101021 H          1 MOL1         0.3769
     106    C31     21.517267   13.756969   20.937343 C.3        1 MOL1         0.2972
     107    H51     21.137232   12.762539   20.670210 H          1 MOL1         0.0751
     108    O26     20.451418   14.698492   21.181396 O.3        1 MOL1        -0.3740
     109    C32     22.396637   13.689484   22.211055 C.3        1 MOL1         0.1003
     110    H52     23.264714   13.057350   21.983140 H          1 MOL1         0.0783
     111    O27     21.676505   13.119810   23.315089 O.3        1 MOL1        -0.5519
     112    H53     20.779133   13.539730   23.336071 H          1 MOL1         0.3769
     113    C33     22.911881   15.102852   22.568408 C.3        1 MOL1         0.1053
     114    H54     22.042432   15.716727   22.831422 H          1 MOL1         0.0783
     115    O28     23.805109   15.030017   23.683893 O.3        1 MOL1        -0.5519
     116    H55     23.377634   14.405634   24.311820 H          1 MOL1         0.3769
     117    C34     23.623131   15.764201   21.362078 C.3        1 MOL1         0.1018
     118    H56     24.606896   15.292539   21.239145 H          1 MOL1         0.0783
     119    C35     22.813322   15.634373   20.039756 C.3        1 MOL1         0.1043
     120    H57     21.954111   16.314885   20.085128 H          1 MOL1         0.0783
     121    O29     22.342962   14.274297   19.873570 O.3        1 MOL1        -0.3740
     122    C36     23.631695   15.994425   18.781002 C.3        1 MOL1         0.0138
     123    H58     23.933178   17.046385   18.838930 H          1 MOL1         0.0794
     124    H59     22.987232   15.888048   17.898202 H          1 MOL1         0.0794
     125    O30     24.784491   15.156620   18.657369 O.3        1 MOL1        -0.5486
     126    H60     24.451587   14.231718   18.654223 H          1 MOL1         0.3769
     127    C1      19.848920   18.933414   19.242225 C.3        1 MOL1        -0.2400
     128    H1      19.024955   18.209982   19.188218 H          1 MOL1         0.0971
     129    H2      19.655830   19.722096   18.503858 H          1 MOL1         0.0971
     130    H3      20.777057   18.423113   18.953176 H          1 MOL1         0.0971
     131    C2      19.965287   19.532348   20.658487 C.3        1 MOL1        -0.1385
     132    H4      19.037351   20.062758   20.910690 H          1 MOL1         0.0960
     133    H5      20.767919   20.281593   20.671853 H          1 MOL1         0.0960
     134    C3      20.245217   18.444666   21.717633 C.3        1 MOL1        -0.1409
     135    H6      19.472128   17.667534   21.661025 H          1 MOL1         0.0960
     136    H7      21.200626   17.954915   21.498206 H          1 MOL1         0.0960
     137    C4      20.286564   19.033175   23.143563 C.3        1 MOL1        -0.1409
     138    H8      19.329745   19.522662   23.372206 H          1 MOL1         0.0960
     139    H9      21.058287   19.809306   23.192775 H          1 MOL1         0.0960
     140    C5      20.592973   17.960256   24.208295 C.3        1 MOL1        -0.1409
     141    H10     19.852289   17.150721   24.146938 H          1 MOL1         0.0960
     142    H11     21.576039   17.517254   24.004650 H          1 MOL1         0.0960
     143    C6      20.595670   18.557231   25.630510 C.3        1 MOL1        -0.1450
     144    H12     19.612212   18.993441   25.850777 H          1 MOL1         0.0960
     145    H13     21.329560   19.372700   25.686631 H          1 MOL1         0.0960
     146    C7      20.934868   17.488111   26.682662 C.3        1 MOL1         0.0172
     147    H14     20.194810   16.684199   26.642368 H          1 MOL1         0.0934
     148    H15     21.918909   17.061739   26.469060 H          1 MOL1         0.0934
     149    N1      20.957939   18.035127   28.095010 N.4        1 MOL1        -0.5956
     150    H16     21.652916   18.781198   28.201433 H          1 MOL1         0.3624
     151    H17     21.188918   17.308643   28.781029 H          1 MOL1         0.3624
     152    H18     20.050087   18.426507   28.365792 H          1 MOL1         0.3624
@<TRIPOS>BOND
    1     1     2    1
    2     1     3    1
    3     1     4    1
    4     4     5    1
    5     4     6    1
    6     6     7    1
    7     4     8    1
    8     8     9    1
    9     8    10    1
   10    10    11    1
   11     8    12    1
   12    12    13    1
   13    12    14    1
   14    14    15    1
   15     1    16    1
   16    14    16    1
   17    14    17    1
   18    17    18    1
   19    17    19    1
   20    17    20    1
   21    20    21    1
   22    22    23    1
   23    22    24    1
   24    22    25    1
   25    25    26    1
   26    25    27    1
   27    27    28    1
   28    25    29    1
   29    29    30    1
   30    29    31    1
   31    31    32    1
   32     3    33    1
   33    29    33    1
   34    33    34    1
   35    33    35    1
   36    35    36    1
   37    22    37    1
   38    35    37    1
   39    35    38    1
   40    38    39    1
   41    38    40    1
   42    38    41    1
   43    41    42    1
   44    43    44    1
   45    43    45    1
   46    43    46    1
   47    46    47    1
   48    46    48    1
   49    48    49    1
   50    46    50    1
   51    50    51    1
   52    50    52    1
   53    52    53    1
   54    24    54    1
   55    50    54    1
   56    54    55    1
   57    54    56    1
   58    56    57    1
   59    43    58    1
   60    56    58    1
   61    56    59    1
   62    59    60    1
   63    59    61    1
   64    59    62    1
   65    62    63    1
   66    64    65    1
   67    64    66    1
   68    64    67    1
   69    67    68    1
   70    67    69    1
   71    69    70    1
   72    67    71    1
   73    71    72    1
   74    71    73    1
   75    73    74    1
   76    45    75    1
   77    71    75    1
   78    75    76    1
   79    75    77    1
   80    77    78    1
   81    64    79    1
   82    77    79    1
   83    77    80    1
   84    80    81    1
   85    80    82    1
   86    80    83    1
   87    83    84    1
   88    85    86    1
   89    85    87    1
   90    85    88    1
   91    88    89    1
   92    88    90    1
   93    90    91    1
   94    88    92    1
   95    92    93    1
   96    92    94    1
   97    94    95    1
   98    66    96    1
   99    92    96    1
  100    96    97    1
  101    96    98    1
  102    98    99    1
  103    85   100    1
  104    98   100    1
  105    98   101    1
  106   101   102    1
  107   101   103    1
  108   101   104    1
  109   104   105    1
  110   106   107    1
  111    12   108    1
  112   106   108    1
  113   106   109    1
  114   109   110    1
  115   109   111    1
  116   111   112    1
  117   109   113    1
  118   113   114    1
  119   113   115    1
  120   115   116    1
  121    87   117    1
  122   113   117    1
  123   117   118    1
  124   117   119    1
  125   119   120    1
  126   106   121    1
  127   119   121    1
  128   119   122    1
  129   122   123    1
  130   122   124    1
  131   122   125    1
  132   125   126    1
  133   127   128    1
  134   127   129    1
  135   127   130    1
  136   127   131    1
  137   131   132    1
  138   131   133    1
  139   131   134    1
  140   134   135    1
  141   134   136    1
  142   134   137    1
  143   137   138    1
  144   137   139    1
  145   137   140    1
  146   140   141    1
  147   140   142    1
  148   140   143    1
  149   143   144    1
  150   143   145    1
  151   143   146    1
  152   146   147    1
  153   146   148    1
  154   146   149    1
  155   149   150    1
  156   149   151    1
  157   149   152    1
@<TRIPOS>SUBSTRUCTURE
       1 MOL1            1 RESIDUE      1      MOL     
       2 MOL1          152 RESIDUE      1      MOL     
@<SCITEGIC>MOL_PROPERTY
VM2 Rank
SciTegic.value.IntegerValue
7

@<SCITEGIC>MOL_PROPERTY
Conf_Id
SciTegic.value.IntegerValue
16870

@<SCITEGIC>MOL_PROPERTY
Probability
SciTegic.value.DoubleValue
1.10

@<SCITEGIC>MOL_PROPERTY
Sum Probability
SciTegic.value.DoubleValue
10.33

@<SCITEGIC>MOL_PROPERTY
Delta G
SciTegic.value.DoubleValue
0.477

@<SCITEGIC>MOL_PROPERTY
G
SciTegic.value.DoubleValue
566.845

@<SCITEGIC>MOL_PROPERTY
E
SciTegic.value.DoubleValue
364.611

@<SCITEGIC>MOL_PROPERTY
-TS
SciTegic.value.DoubleValue
202.234

@<SCITEGIC>MOL_PROPERTY
U+W
SciTegic.value.DoubleValue
230.475

@<SCITEGIC>MOL_PROPERTY
U
SciTegic.value.DoubleValue
315.464

@<SCITEGIC>MOL_PROPERTY
W
SciTegic.value.DoubleValue
-84.989

@<SCITEGIC>MOL_PROPERTY
W(PB)
SciTegic.value.DoubleValue
-91.270

@<SCITEGIC>MOL_PROPERTY
W(SA)
SciTegic.value.DoubleValue
6.281

@<SCITEGIC>MOL_PROPERTY
Valence
SciTegic.value.DoubleValue
146.229

@<SCITEGIC>MOL_PROPERTY
Coulomb
SciTegic.value.DoubleValue
194.778

@<SCITEGIC>MOL_PROPERTY
VdW
SciTegic.value.DoubleValue
-25.544

@<SCITEGIC>MOL_PROPERTY
VdW6
SciTegic.value.DoubleValue
-178.284

@<SCITEGIC>MOL_PROPERTY
VdW12
SciTegic.value.DoubleValue
152.741

@<SCITEGIC>MOL_PROPERTY
Bond
SciTegic.value.DoubleValue
4.476

@<SCITEGIC>MOL_PROPERTY
Angle
SciTegic.value.DoubleValue
10.225

@<SCITEGIC>MOL_PROPERTY
Pdih
SciTegic.value.DoubleValue
131.529

@<SCITEGIC>MOL_PROPERTY
Idih
SciTegic.value.DoubleValue
0.000

@<SCITEGIC>MOL_PROPERTY
Tether
SciTegic.value.DoubleValue
0.000

@<TRIPOS>MOLECULE
CD_guest-s14_vm2_single.mol2 : vm2 host+ligand conformer 8
         152         157           2
SMALL
USER_CHARGES
 
@<TRIPOS>ATOM
       1    C1      16.275357   15.118202   21.262827 C.3        1 MOL1         0.2972
       2    H1      15.232101   14.837219   21.071583 H          1 MOL1         0.0751
       3    O1      16.430104   16.542546   21.412234 O.3        1 MOL1        -0.3740
       4    C2      16.774642   14.449289   22.567651 C.3        1 MOL1         0.1003
       5    H2      16.685000   13.363195   22.435389 H          1 MOL1         0.0783
       6    O2      15.975331   14.854085   23.690827 O.3        1 MOL1        -0.5519
       7    H3      15.645769   15.769159   23.505344 H          1 MOL1         0.3769
       8    C3      18.265397   14.775978   22.822038 C.3        1 MOL1         0.1053
       9    H4      18.342880   15.849253   23.035529 H          1 MOL1         0.0783
      10    O3      18.718580   14.023618   23.952323 O.3        1 MOL1        -0.5519
      11    H5      17.978045   14.075115   24.598772 H          1 MOL1         0.3769
      12    C4      19.127625   14.466512   21.568122 C.3        1 MOL1         0.1018
      13    H6      19.211168   13.379386   21.435527 H          1 MOL1         0.0783
      14    C5      18.517163   15.072363   20.277869 C.3        1 MOL1         0.1043
      15    H7      18.608954   16.165536   20.315995 H          1 MOL1         0.0783
      16    O4      17.125237   14.679830   20.181811 O.3        1 MOL1        -0.3740
      17    C6      19.234482   14.564416   19.009402 C.3        1 MOL1         0.0138
      18    H8      19.043684   13.489500   18.889911 H          1 MOL1         0.0794
      19    H9      20.317241   14.697606   19.127247 H          1 MOL1         0.0794
      20    O5      18.784294   15.286674   17.862171 O.3        1 MOL1        -0.5486
      21    H10     17.808169   15.188550   17.833164 H          1 MOL1         0.3769
      22    C7      14.608731   20.198413   20.788142 C.3        1 MOL1         0.2972
      23    H11     13.947792   21.036278   20.531516 H          1 MOL1         0.0751
      24    O6      15.934088   20.640206   21.146296 O.3        1 MOL1        -0.3740
      25    C8      14.042462   19.392912   21.983288 C.3        1 MOL1         0.1003
      26    H12     13.073148   18.978808   21.676721 H          1 MOL1         0.0783
      27    O7      13.855603   20.231747   23.134112 O.3        1 MOL1        -0.5519
      28    H13     14.662502   20.800063   23.223727 H          1 MOL1         0.3769
      29    C9      14.985887   18.214139   22.319054 C.3        1 MOL1         0.1053
      30    H14     15.929982   18.638194   22.681325 H          1 MOL1         0.0783
      31    O8      14.400869   17.399555   23.339118 O.3        1 MOL1        -0.5519
      32    H15     14.036032   18.035202   23.994779 H          1 MOL1         0.3769
      33    C10     15.293095   17.355841   21.065818 C.3        1 MOL1         0.1018
      34    H16     14.407313   16.752625   20.826654 H          1 MOL1         0.0783
      35    C11     15.677260   18.214808   19.828564 C.3        1 MOL1         0.1043
      36    H17     16.684870   18.624051   19.971587 H          1 MOL1         0.0783
      37    O9      14.718830   19.289796   19.673241 O.3        1 MOL1        -0.3740
      38    C12     15.670254   17.402849   18.518120 C.3        1 MOL1         0.0138
      39    H18     14.659243   17.015354   18.334522 H          1 MOL1         0.0794
      40    H19     16.345187   16.545549   18.619851 H          1 MOL1         0.0794
      41    O10     16.097737   18.227028   17.432587 O.3        1 MOL1        -0.5486
      42    H20     15.521899   19.022787   17.453938 H          1 MOL1         0.3769
      43    C13     18.390449   23.964151   21.241903 C.3        1 MOL1         0.2972
      44    H21     18.831857   24.968728   21.209663 H          1 MOL1         0.0751
      45    O11     19.410153   22.940762   21.230400 O.3        1 MOL1        -0.3740
      46    C14     17.480361   23.792940   22.489071 C.3        1 MOL1         0.1003
      47    H22     16.656429   24.511202   22.386884 H          1 MOL1         0.0783
      48    O12     18.176513   24.065729   23.713705 O.3        1 MOL1        -0.5519
      49    H23     18.884198   23.378420   23.800400 H          1 MOL1         0.3769
      50    C15     16.870471   22.371972   22.512477 C.3        1 MOL1         0.1053
      51    H24     17.687084   21.650283   22.641448 H          1 MOL1         0.0783
      52    O13     15.951599   22.261479   23.603905 O.3        1 MOL1        -0.5519
      53    H25     16.402106   22.694172   24.363149 H          1 MOL1         0.3769
      54    C16     16.146341   22.062116   21.179042 C.3        1 MOL1         0.1018
      55    H26     15.200922   22.620371   21.163464 H          1 MOL1         0.0783
      56    C17     16.998292   22.430807   19.931889 C.3        1 MOL1         0.1043
      57    H27     17.812198   21.699601   19.839979 H          1 MOL1         0.0783
      58    O14     17.554020   23.761101   20.083154 O.3        1 MOL1        -0.3740
      59    C18     16.193933   22.405827   18.613133 C.3        1 MOL1         0.0138
      60    H28     15.846951   21.381899   18.423887 H          1 MOL1         0.0794
      61    H29     16.862324   22.681373   17.786478 H          1 MOL1         0.0794
      62    O15     15.079756   23.301554   18.670641 O.3        1 MOL1        -0.5486
      63    H30     15.451566   24.190252   18.866489 H          1 MOL1         0.3769
      64    C19     23.465921   22.379444   22.033142 C.3        1 MOL1         0.2972
      65    H31     24.503651   22.507104   22.364692 H          1 MOL1         0.0751
      66    O16     23.322233   21.240396   21.158647 O.3        1 MOL1        -0.3740
      67    C20     22.517357   22.210345   23.252122 C.3        1 MOL1         0.1003
      68    H32     22.614910   23.117037   23.863390 H          1 MOL1         0.0783
      69    O17     22.855989   21.067471   24.054102 O.3        1 MOL1        -0.5519
      70    H33     23.822383   20.907877   23.937263 H          1 MOL1         0.3769
      71    C21     21.048188   22.098580   22.788405 C.3        1 MOL1         0.1053
      72    H34     20.947251   21.171299   22.213357 H          1 MOL1         0.0783
      73    O18     20.204373   22.050579   23.942457 O.3        1 MOL1        -0.5519
      74    H35     20.666402   21.431825   24.551635 H          1 MOL1         0.3769
      75    C22     20.659918   23.279362   21.865748 C.3        1 MOL1         0.1018
      76    H36     20.576546   24.188716   22.475668 H          1 MOL1         0.0783
      77    C23     21.707614   23.498176   20.739041 C.3        1 MOL1         0.1043
      78    H37     21.641905   22.657124   20.035684 H          1 MOL1         0.0783
      79    O19     23.039298   23.554024   21.308788 O.3        1 MOL1        -0.3740
      80    C24     21.483315   24.800428   19.938104 C.3        1 MOL1         0.0138
      81    H38     20.526257   24.731376   19.404019 H          1 MOL1         0.0794
      82    H39     22.273655   24.890323   19.180877 H          1 MOL1         0.0794
      83    O20     21.486197   25.944189   20.797605 O.3        1 MOL1        -0.5486
      84    H40     22.353762   25.939115   21.260010 H          1 MOL1         0.3769
      85    C25     25.193117   17.626330   20.539921 C.3        1 MOL1         0.2972
      86    H41     25.814978   16.764461   20.265653 H          1 MOL1         0.0751
      87    O21     23.851772   17.222100   20.892976 O.3        1 MOL1        -0.3740
      88    C26     25.832269   18.443668   21.691290 C.3        1 MOL1         0.1003
      89    H42     26.762801   18.874121   21.298484 H          1 MOL1         0.0783
      90    O22     26.153461   17.632868   22.830399 O.3        1 MOL1        -0.5519
      91    H43     25.292789   17.338864   23.221679 H          1 MOL1         0.3769
      92    C27     24.901513   19.613254   22.090236 C.3        1 MOL1         0.1053
      93    H44     23.978294   19.186282   22.504307 H          1 MOL1         0.0783
      94    O23     25.564352   20.398273   23.088393 O.3        1 MOL1        -0.5519
      95    H45     26.039537   19.744859   23.651201 H          1 MOL1         0.3769
      96    C28     24.514870   20.482613   20.855933 C.3        1 MOL1         0.1018
      97    H46     25.350224   21.149074   20.603402 H          1 MOL1         0.0783
      98    C29     24.153933   19.634431   19.601652 C.3        1 MOL1         0.1043
      99    H47     23.140336   19.235267   19.726870 H          1 MOL1         0.0783
     100    O24     25.093483   18.542074   19.429109 O.3        1 MOL1        -0.3740
     101    C30     24.171028   20.479123   18.311403 C.3        1 MOL1         0.0138
     102    H48     25.196318   20.819305   18.113412 H          1 MOL1         0.0794
     103    H49     23.543975   21.369571   18.454189 H          1 MOL1         0.0794
     104    O25     23.676471   19.706085   17.216199 O.3        1 MOL1        -0.5486
     105    H50     24.188489   18.866618   17.222096 H          1 MOL1         0.3769
     106    C31     21.423983   14.241138   22.363038 C.3        1 MOL1         0.2972
     107    H51     20.982530   13.335594   22.798763 H          1 MOL1         0.0751
     108    O26     20.421957   15.074513   21.744484 O.3        1 MOL1        -0.3740
     109    C32     22.148888   15.056751   23.460376 C.3        1 MOL1         0.1003
     110    H52     22.937752   14.413631   23.871877 H          1 MOL1         0.0783
     111    O27     21.249231   15.433721   24.516401 O.3        1 MOL1        -0.5519
     112    H53     20.421181   14.908926   24.393066 H          1 MOL1         0.3769
     113    C33     22.817524   16.314526   22.861785 C.3        1 MOL1         0.1053
     114    H54     22.025782   16.996590   22.534840 H          1 MOL1         0.0783
     115    O28     23.593862   16.941679   23.885161 O.3        1 MOL1        -0.5519
     116    H55     22.999723   16.956780   24.669367 H          1 MOL1         0.3769
     117    C34     23.690503   15.987388   21.621421 C.3        1 MOL1         0.1018
     118    H56     24.649813   15.572134   21.956880 H          1 MOL1         0.0783
     119    C35     22.996039   14.998447   20.642643 C.3        1 MOL1         0.1043
     120    H57     22.203517   15.546916   20.117455 H          1 MOL1         0.0783
     121    O29     22.402695   13.889593   21.363529 O.3        1 MOL1        -0.3740
     122    C36     23.948549   14.431812   19.562796 C.3        1 MOL1         0.0138
     123    H58     24.198721   15.239607   18.861794 H          1 MOL1         0.0794
     124    H59     23.413147   13.660066   18.993655 H          1 MOL1         0.0794
     125    O30     25.149181   13.891373   20.128760 O.3        1 MOL1        -0.5486
     126    H60     25.666167   13.485056   19.399114 H          1 MOL1         0.3769
     127    C1      19.988151   19.144093   19.290593 C.3        1 MOL1        -0.2400
     128    H1      19.767938   20.219383   19.285119 H          1 MOL1         0.0971
     129    H2      20.803829   18.964307   18.577772 H          1 MOL1         0.0971
     130    H3      19.100823   18.607908   18.927631 H          1 MOL1         0.0971
     131    C2      20.386124   18.668627   20.702984 C.3        1 MOL1        -0.1385
     132    H4      21.293633   19.195760   21.025282 H          1 MOL1         0.0960
     133    H5      20.638590   17.600389   20.669289 H          1 MOL1         0.0960
     134    C3      19.257588   18.909759   21.727864 C.3        1 MOL1        -0.1409
     135    H6      18.963387   19.967211   21.710317 H          1 MOL1         0.0960
     136    H7      18.373100   18.330770   21.440536 H          1 MOL1         0.0960
     137    C4      19.686928   18.513174   23.156022 C.3        1 MOL1        -0.1409
     138    H8      20.574286   19.089656   23.452095 H          1 MOL1         0.0960
     139    H9      19.978285   17.456979   23.166333 H          1 MOL1         0.0960
     140    C5      18.556932   18.727630   24.183604 C.3        1 MOL1        -0.1409
     141    H10     18.230904   19.777009   24.166199 H          1 MOL1         0.0960
     142    H11     17.690923   18.114122   23.904572 H          1 MOL1         0.0960
     143    C6      19.006575   18.344893   25.608575 C.3        1 MOL1        -0.1450
     144    H12     19.865243   18.962409   25.904135 H          1 MOL1         0.0960
     145    H13     19.342665   17.299104   25.620639 H          1 MOL1         0.0960
     146    C7      17.864120   18.528331   26.621606 C.3        1 MOL1         0.0172
     147    H14     17.540548   19.572769   26.626431 H          1 MOL1         0.0934
     148    H15     17.013310   17.905191   26.332530 H          1 MOL1         0.0934
     149    N1      18.260990   18.152835   28.034399 N.4        1 MOL1        -0.5956
     150    H16     18.554023   17.172517   28.098127 H          1 MOL1         0.3624
     151    H17     17.485766   18.278634   28.693913 H          1 MOL1         0.3624
     152    H18     19.040874   18.724403   28.374674 H          1 MOL1         0.3624
@<TRIPOS>BOND
    1     1     2    1
    2     1     3    1
    3     1     4    1
    4     4     5    1
    5     4     6    1
    6     6     7    1
    7     4     8    1
    8     8     9    1
    9     8    10    1
   10    10    11    1
   11     8    12    1
   12    12    13    1
   13    12    14    1
   14    14    15    1
   15     1    16    1
   16    14    16    1
   17    14    17    1
   18    17    18    1
   19    17    19    1
   20    17    20    1
   21    20    21    1
   22    22    23    1
   23    22    24    1
   24    22    25    1
   25    25    26    1
   26    25    27    1
   27    27    28    1
   28    25    29    1
   29    29    30    1
   30    29    31    1
   31    31    32    1
   32     3    33    1
   33    29    33    1
   34    33    34    1
   35    33    35    1
   36    35    36    1
   37    22    37    1
   38    35    37    1
   39    35    38    1
   40    38    39    1
   41    38    40    1
   42    38    41    1
   43    41    42    1
   44    43    44    1
   45    43    45    1
   46    43    46    1
   47    46    47    1
   48    46    48    1
   49    48    49    1
   50    46    50    1
   51    50    51    1
   52    50    52    1
   53    52    53    1
   54    24    54    1
   55    50    54    1
   56    54    55    1
   57    54    56    1
   58    56    57    1
   59    43    58    1
   60    56    58    1
   61    56    59    1
   62    59    60    1
   63    59    61    1
   64    59    62    1
   65    62    63    1
   66    64    65    1
   67    64    66    1
   68    64    67    1
   69    67    68    1
   70    67    69    1
   71    69    70    1
   72    67    71    1
   73    71    72    1
   74    71    73    1
   75    73    74    1
   76    45    75    1
   77    71    75    1
   78    75    76    1
   79    75    77    1
   80    77    78    1
   81    64    79    1
   82    77    79    1
   83    77    80    1
   84    80    81    1
   85    80    82    1
   86    80    83    1
   87    83    84    1
   88    85    86    1
   89    85    87    1
   90    85    88    1
   91    88    89    1
   92    88    90    1
   93    90    91    1
   94    88    92    1
   95    92    93    1
   96    92    94    1
   97    94    95    1
   98    66    96    1
   99    92    96    1
  100    96    97    1
  101    96    98    1
  102    98    99    1
  103    85   100    1
  104    98   100    1
  105    98   101    1
  106   101   102    1
  107   101   103    1
  108   101   104    1
  109   104   105    1
  110   106   107    1
  111    12   108    1
  112   106   108    1
  113   106   109    1
  114   109   110    1
  115   109   111    1
  116   111   112    1
  117   109   113    1
  118   113   114    1
  119   113   115    1
  120   115   116    1
  121    87   117    1
  122   113   117    1
  123   117   118    1
  124   117   119    1
  125   119   120    1
  126   106   121    1
  127   119   121    1
  128   119   122    1
  129   122   123    1
  130   122   124    1
  131   122   125    1
  132   125   126    1
  133   127   128    1
  134   127   129    1
  135   127   130    1
  136   127   131    1
  137   131   132    1
  138   131   133    1
  139   131   134    1
  140   134   135    1
  141   134   136    1
  142   134   137    1
  143   137   138    1
  144   137   139    1
  145   137   140    1
  146   140   141    1
  147   140   142    1
  148   140   143    1
  149   143   144    1
  150   143   145    1
  151   143   146    1
  152   146   147    1
  153   146   148    1
  154   146   149    1
  155   149   150    1
  156   149   151    1
  157   149   152    1
@<TRIPOS>SUBSTRUCTURE
       1 MOL1            1 RESIDUE      1      MOL     
       2 MOL1          152 RESIDUE      1      MOL     
@<SCITEGIC>MOL_PROPERTY
VM2 Rank
SciTegic.value.IntegerValue
8

@<SCITEGIC>MOL_PROPERTY
Conf_Id
SciTegic.value.IntegerValue
11769

@<SCITEGIC>MOL_PROPERTY
Probability
SciTegic.value.DoubleValue
1.07

@<SCITEGIC>MOL_PROPERTY
Sum Probability
SciTegic.value.DoubleValue
11.39

@<SCITEGIC>MOL_PROPERTY
Delta G
SciTegic.value.DoubleValue
0.497

@<SCITEGIC>MOL_PROPERTY
G
SciTegic.value.DoubleValue
566.865

@<SCITEGIC>MOL_PROPERTY
E
SciTegic.value.DoubleValue
365.524

@<SCITEGIC>MOL_PROPERTY
-TS
SciTegic.value.DoubleValue
201.341

@<SCITEGIC>MOL_PROPERTY
U+W
SciTegic.value.DoubleValue
231.388

@<SCITEGIC>MOL_PROPERTY
U
SciTegic.value.DoubleValue
316.433

@<SCITEGIC>MOL_PROPERTY
W
SciTegic.value.DoubleValue
-85.045

@<SCITEGIC>MOL_PROPERTY
W(PB)
SciTegic.value.DoubleValue
-91.305

@<SCITEGIC>MOL_PROPERTY
W(SA)
SciTegic.value.DoubleValue
6.260

@<SCITEGIC>MOL_PROPERTY
Valence
SciTegic.value.DoubleValue
146.406

@<SCITEGIC>MOL_PROPERTY
Coulomb
SciTegic.value.DoubleValue
196.404

@<SCITEGIC>MOL_PROPERTY
VdW
SciTegic.value.DoubleValue
-26.377

@<SCITEGIC>MOL_PROPERTY
VdW6
SciTegic.value.DoubleValue
-177.596

@<SCITEGIC>MOL_PROPERTY
VdW12
SciTegic.value.DoubleValue
151.219

@<SCITEGIC>MOL_PROPERTY
Bond
SciTegic.value.DoubleValue
4.406

@<SCITEGIC>MOL_PROPERTY
Angle
SciTegic.value.DoubleValue
10.166

@<SCITEGIC>MOL_PROPERTY
Pdih
SciTegic.value.DoubleValue
131.833

@<SCITEGIC>MOL_PROPERTY
Idih
SciTegic.value.DoubleValue
0.000

@<SCITEGIC>MOL_PROPERTY
Tether
SciTegic.value.DoubleValue
0.000

