@<TRIPOS>MOLECULE
CD_guest-6_vm2_single.mol2 : vm2 host+ligand conformer 1
         139         144           2
SMALL
USER_CHARGES
 
@<TRIPOS>ATOM
       1    C1      16.415105   15.353240   22.143726 C.3        1 MOL1         0.2972
       2    H1      15.382579   15.269961   22.505235 H          1 MOL1         0.0751
       3    O1      16.630753   16.584875   21.420736 O.3        1 MOL1        -0.3740
       4    C2      17.410840   15.294631   23.329789 C.3        1 MOL1         0.1003
       5    H2      17.294626   14.314450   23.809734 H          1 MOL1         0.0783
       6    O2      17.109773   16.322250   24.289321 O.3        1 MOL1        -0.5519
       7    H3      17.948351   16.830356   24.454434 H          1 MOL1         0.3769
       8    C3      18.866865   15.398672   22.809668 C.3        1 MOL1         0.1053
       9    H4      18.996749   16.389748   22.364522 H          1 MOL1         0.0783
      10    O3      19.793171   15.234151   23.890356 O.3        1 MOL1        -0.5519
      11    H5      19.827534   16.119969   24.340719 H          1 MOL1         0.3769
      12    C4      19.154638   14.363292   21.693688 C.3        1 MOL1         0.1018
      13    H6      19.285958   13.373410   22.149558 H          1 MOL1         0.0783
      14    C5      18.026676   14.311121   20.624344 C.3        1 MOL1         0.1043
      15    H7      18.092694   15.220873   20.013105 H          1 MOL1         0.0783
      16    O4      16.727686   14.251716   21.264420 O.3        1 MOL1        -0.3740
      17    C6      18.138552   13.101546   19.669907 C.3        1 MOL1         0.0138
      18    H8      19.063243   13.191887   19.084755 H          1 MOL1         0.0794
      19    H9      17.299956   13.133021   18.961354 H          1 MOL1         0.0794
      20    O5      18.131053   11.867526   20.393440 O.3        1 MOL1        -0.5486
      21    H10     17.298654   11.860441   20.916602 H          1 MOL1         0.3769
      22    C7      14.735930   20.242220   20.781083 C.3        1 MOL1         0.2972
      23    H11     14.023146   21.033710   20.517996 H          1 MOL1         0.0751
      24    O6      16.046998   20.772210   21.063500 O.3        1 MOL1        -0.3740
      25    C8      14.239176   19.472227   22.030087 C.3        1 MOL1         0.1003
      26    H12     13.262784   19.037168   21.780010 H          1 MOL1         0.0783
      27    O7      14.090155   20.349582   23.155284 O.3        1 MOL1        -0.5519
      28    H13     13.926706   19.748573   23.916751 H          1 MOL1         0.3769
      29    C9      15.198093   18.312526   22.390236 C.3        1 MOL1         0.1053
      30    H14     16.149843   18.752827   22.716274 H          1 MOL1         0.0783
      31    O8      14.624448   17.555431   23.462724 O.3        1 MOL1        -0.5519
      32    H15     15.378954   17.077826   23.888742 H          1 MOL1         0.3769
      33    C10     15.475878   17.406845   21.155763 C.3        1 MOL1         0.1018
      34    H16     14.592638   16.791545   20.939145 H          1 MOL1         0.0783
      35    C11     15.830981   18.242509   19.895534 C.3        1 MOL1         0.1043
      36    H17     16.826463   18.683294   20.040476 H          1 MOL1         0.0783
      37    O9      14.852679   19.293246   19.701327 O.3        1 MOL1        -0.3740
      38    C12     15.870624   17.398621   18.602118 C.3        1 MOL1         0.0138
      39    H18     16.619057   16.603303   18.714217 H          1 MOL1         0.0794
      40    H19     16.194554   18.040993   17.772496 H          1 MOL1         0.0794
      41    O10     14.587768   16.832686   18.318111 O.3        1 MOL1        -0.5486
      42    H20     13.953638   17.584127   18.322312 H          1 MOL1         0.3769
      43    C13     18.459954   24.109264   20.752190 C.3        1 MOL1         0.2972
      44    H21     18.909150   25.093937   20.569857 H          1 MOL1         0.0751
      45    O11     19.469784   23.122828   21.052324 O.3        1 MOL1        -0.3740
      46    C14     17.407253   24.180343   21.894008 C.3        1 MOL1         0.1003
      47    H22     16.615886   24.861437   21.555882 H          1 MOL1         0.0783
      48    O12     17.978168   24.709816   23.100149 O.3        1 MOL1        -0.5519
      49    H23     18.559418   23.999924   23.470818 H          1 MOL1         0.3769
      50    C15     16.759384   22.789646   22.129289 C.3        1 MOL1         0.1053
      51    H24     17.524838   22.118694   22.541678 H          1 MOL1         0.0783
      52    O13     15.658364   22.893888   23.041038 O.3        1 MOL1        -0.5519
      53    H25     15.251971   21.994425   23.102208 H          1 MOL1         0.3769
      54    C16     16.239568   22.176408   20.804416 C.3        1 MOL1         0.1018
      55    H26     15.301554   22.679839   20.535732 H          1 MOL1         0.0783
      56    C17     17.244592   22.307091   19.627343 C.3        1 MOL1         0.1043
      57    H27     18.064558   21.595503   19.790265 H          1 MOL1         0.0783
      58    O14     17.767222   23.658918   19.569413 O.3        1 MOL1        -0.3740
      59    C18     16.614443   21.993235   18.252178 C.3        1 MOL1         0.0138
      60    H28     16.261591   20.954042   18.245875 H          1 MOL1         0.0794
      61    H29     17.391625   22.078966   17.481106 H          1 MOL1         0.0794
      62    O15     15.532202   22.884509   17.965969 O.3        1 MOL1        -0.5486
      63    H30     15.900353   23.793101   18.040445 H          1 MOL1         0.3769
      64    C19     23.315945   22.556975   22.448123 C.3        1 MOL1         0.2972
      65    H31     24.317091   22.636366   22.889954 H          1 MOL1         0.0751
      66    O16     23.168505   21.346606   21.674659 O.3        1 MOL1        -0.3740
      67    C20     22.231286   22.578671   23.556135 C.3        1 MOL1         0.1003
      68    H32     22.310283   23.543384   24.073532 H          1 MOL1         0.0783
      69    O17     22.452578   21.521312   24.505584 O.3        1 MOL1        -0.5519
      70    H33     21.613434   20.989993   24.566174 H          1 MOL1         0.3769
      71    C21     20.819238   22.492898   22.926885 C.3        1 MOL1         0.1053
      72    H34     20.723746   21.508568   22.455700 H          1 MOL1         0.0783
      73    O18     19.819196   22.646669   23.941537 O.3        1 MOL1        -0.5519
      74    H35     19.768186   21.762844   24.392938 H          1 MOL1         0.3769
      75    C22     20.614108   23.554267   21.817395 C.3        1 MOL1         0.1018
      76    H36     20.454268   24.533629   22.286641 H          1 MOL1         0.0783
      77    C23     21.817621   23.629290   20.836134 C.3        1 MOL1         0.1043
      78    H37     21.800817   22.732035   20.203333 H          1 MOL1         0.0783
      79    O19     23.063812   23.679279   21.575147 O.3        1 MOL1        -0.3740
      80    C24     21.773043   24.858237   19.901079 C.3        1 MOL1         0.0138
      81    H38     20.893884   24.778974   19.248041 H          1 MOL1         0.0794
      82    H39     22.661444   24.842294   19.255513 H          1 MOL1         0.0794
      83    O20     21.724142   26.077156   20.648233 O.3        1 MOL1        -0.5486
      84    H40     22.514851   26.073463   21.232552 H          1 MOL1         0.3769
      85    C25     25.099582   17.699161   21.114701 C.3        1 MOL1         0.2972
      86    H41     25.825642   16.905520   20.898755 H          1 MOL1         0.0751
      87    O21     23.762813   17.178989   21.263667 O.3        1 MOL1        -0.3740
      88    C26     25.489422   18.437575   22.419012 C.3        1 MOL1         0.1003
      89    H42     26.483252   18.876485   22.261364 H          1 MOL1         0.0783
      90    O22     25.545953   17.536867   23.533540 O.3        1 MOL1        -0.5519
      91    H43     25.637065   18.122925   24.318553 H          1 MOL1         0.3769
      92    C27     24.504851   19.591324   22.722956 C.3        1 MOL1         0.1053
      93    H44     23.523459   19.151285   22.950509 H          1 MOL1         0.0783
      94    O23     24.988095   20.316563   23.860250 O.3        1 MOL1        -0.5519
      95    H45     24.200234   20.782025   24.236356 H          1 MOL1         0.3769
      96    C28     24.343949   20.530535   21.493453 C.3        1 MOL1         0.1018
      97    H46     25.243072   21.150314   21.379216 H          1 MOL1         0.0783
      98    C29     24.110580   19.733117   20.180199 C.3        1 MOL1         0.1043
      99    H47     23.102261   19.300570   20.211065 H          1 MOL1         0.0783
     100    O24     25.092118   18.674626   20.051983 O.3        1 MOL1        -0.3740
     101    C30     24.206801   20.614130   18.914981 C.3        1 MOL1         0.0138
     102    H48     23.459662   21.416222   18.977884 H          1 MOL1         0.0794
     103    H49     23.958426   20.000395   18.038917 H          1 MOL1         0.0794
     104    O25     25.517513   21.170057   18.774429 O.3        1 MOL1        -0.5486
     105    H50     26.139748   20.409897   18.817348 H          1 MOL1         0.3769
     106    C31     21.375115   13.842536   20.757293 C.3        1 MOL1         0.2972
     107    H51     20.942048   12.860140   20.529443 H          1 MOL1         0.0751
     108    O26     20.346254   14.818139   21.021401 O.3        1 MOL1        -0.3740
     109    C32     22.357548   13.753350   21.958180 C.3        1 MOL1         0.1003
     110    H52     23.167892   13.077050   21.657495 H          1 MOL1         0.0783
     111    O27     21.713999   13.205650   23.119053 O.3        1 MOL1        -0.5519
     112    H53     21.104928   13.907023   23.460281 H          1 MOL1         0.3769
     113    C33     22.990011   15.139488   22.255767 C.3        1 MOL1         0.1053
     114    H54     22.202751   15.803179   22.639153 H          1 MOL1         0.0783
     115    O28     24.038051   15.011105   23.224675 O.3        1 MOL1        -0.5519
     116    H55     24.430455   15.911215   23.342709 H          1 MOL1         0.3769
     117    C34     23.582227   15.779055   20.973619 C.3        1 MOL1         0.1018
     118    H56     24.531950   15.278787   20.742994 H          1 MOL1         0.0783
     119    C35     22.641089   15.673761   19.743171 C.3        1 MOL1         0.1043
     120    H57     21.808855   16.376718   19.879913 H          1 MOL1         0.0783
     121    O29     22.131633   14.320916   19.625527 O.3        1 MOL1        -0.3740
     122    C36     23.341882   16.027055   18.412627 C.3        1 MOL1         0.0138
     123    H58     23.696410   17.065000   18.457216 H          1 MOL1         0.0794
     124    H59     22.605517   15.967158   17.600189 H          1 MOL1         0.0794
     125    O30     24.436261   15.141570   18.156131 O.3        1 MOL1        -0.5486
     126    H60     24.064353   14.232092   18.190450 H          1 MOL1         0.3769
     127    C1      19.617099   18.991671   24.015314 C.2        1 MOL1         0.6021
     128    O1      20.100414   19.956915   24.577793 O.co2      1 MOL1        -0.6904
     129    O2      19.407289   17.921174   24.555797 O.co2      1 MOL1        -0.6904
     130    C2      19.263152   19.127207   22.535967 C.3        1 MOL1        -0.2102
     131    H1      18.943183   20.157709   22.348120 H          1 MOL1         0.0687
     132    H2      18.393485   18.496002   22.332907 H          1 MOL1         0.0687
     133    C3      20.432818   18.744365   21.594714 C.3        1 MOL1        -0.1974
     134    H3      21.292006   19.394514   21.798092 H          1 MOL1         0.0689
     135    H4      20.763572   17.719905   21.810361 H          1 MOL1         0.0689
     136    C4      20.032933   18.857812   20.110340 C.3        1 MOL1        -0.2987
     137    H5      19.719354   19.881008   19.868514 H          1 MOL1         0.0700
     138    H6      20.877684   18.599512   19.460163 H          1 MOL1         0.0700
     139    H7      19.205143   18.175861   19.877766 H          1 MOL1         0.0700
@<TRIPOS>BOND
    1     1     2    1
    2     1     3    1
    3     1     4    1
    4     4     5    1
    5     4     6    1
    6     6     7    1
    7     4     8    1
    8     8     9    1
    9     8    10    1
   10    10    11    1
   11     8    12    1
   12    12    13    1
   13    12    14    1
   14    14    15    1
   15     1    16    1
   16    14    16    1
   17    14    17    1
   18    17    18    1
   19    17    19    1
   20    17    20    1
   21    20    21    1
   22    22    23    1
   23    22    24    1
   24    22    25    1
   25    25    26    1
   26    25    27    1
   27    27    28    1
   28    25    29    1
   29    29    30    1
   30    29    31    1
   31    31    32    1
   32     3    33    1
   33    29    33    1
   34    33    34    1
   35    33    35    1
   36    35    36    1
   37    22    37    1
   38    35    37    1
   39    35    38    1
   40    38    39    1
   41    38    40    1
   42    38    41    1
   43    41    42    1
   44    43    44    1
   45    43    45    1
   46    43    46    1
   47    46    47    1
   48    46    48    1
   49    48    49    1
   50    46    50    1
   51    50    51    1
   52    50    52    1
   53    52    53    1
   54    24    54    1
   55    50    54    1
   56    54    55    1
   57    54    56    1
   58    56    57    1
   59    43    58    1
   60    56    58    1
   61    56    59    1
   62    59    60    1
   63    59    61    1
   64    59    62    1
   65    62    63    1
   66    64    65    1
   67    64    66    1
   68    64    67    1
   69    67    68    1
   70    67    69    1
   71    69    70    1
   72    67    71    1
   73    71    72    1
   74    71    73    1
   75    73    74    1
   76    45    75    1
   77    71    75    1
   78    75    76    1
   79    75    77    1
   80    77    78    1
   81    64    79    1
   82    77    79    1
   83    77    80    1
   84    80    81    1
   85    80    82    1
   86    80    83    1
   87    83    84    1
   88    85    86    1
   89    85    87    1
   90    85    88    1
   91    88    89    1
   92    88    90    1
   93    90    91    1
   94    88    92    1
   95    92    93    1
   96    92    94    1
   97    94    95    1
   98    66    96    1
   99    92    96    1
  100    96    97    1
  101    96    98    1
  102    98    99    1
  103    85   100    1
  104    98   100    1
  105    98   101    1
  106   101   102    1
  107   101   103    1
  108   101   104    1
  109   104   105    1
  110   106   107    1
  111    12   108    1
  112   106   108    1
  113   106   109    1
  114   109   110    1
  115   109   111    1
  116   111   112    1
  117   109   113    1
  118   113   114    1
  119   113   115    1
  120   115   116    1
  121    87   117    1
  122   113   117    1
  123   117   118    1
  124   117   119    1
  125   119   120    1
  126   106   121    1
  127   119   121    1
  128   119   122    1
  129   122   123    1
  130   122   124    1
  131   122   125    1
  132   125   126    1
  133   127   128    1
  134   127   129    2
  135   127   130    1
  136   130   131    1
  137   130   132    1
  138   130   133    1
  139   133   134    1
  140   133   135    1
  141   133   136    1
  142   136   137    1
  143   136   138    1
  144   136   139    1
@<TRIPOS>SUBSTRUCTURE
       1 MOL1            1 RESIDUE      1      MOL     
       2 MOL1          139 RESIDUE      1      MOL     
@<SCITEGIC>MOL_PROPERTY
VM2 Rank
SciTegic.value.IntegerValue
1

@<SCITEGIC>MOL_PROPERTY
Conf_Id
SciTegic.value.IntegerValue
14863

@<SCITEGIC>MOL_PROPERTY
Probability
SciTegic.value.DoubleValue
2.60

@<SCITEGIC>MOL_PROPERTY
Sum Probability
SciTegic.value.DoubleValue
2.60

@<SCITEGIC>MOL_PROPERTY
Delta G
SciTegic.value.DoubleValue
0.000

@<SCITEGIC>MOL_PROPERTY
G
SciTegic.value.DoubleValue
473.018

@<SCITEGIC>MOL_PROPERTY
E
SciTegic.value.DoubleValue
293.403

@<SCITEGIC>MOL_PROPERTY
-TS
SciTegic.value.DoubleValue
179.615

@<SCITEGIC>MOL_PROPERTY
U+W
SciTegic.value.DoubleValue
170.892

@<SCITEGIC>MOL_PROPERTY
U
SciTegic.value.DoubleValue
236.051

@<SCITEGIC>MOL_PROPERTY
W
SciTegic.value.DoubleValue
-65.158

@<SCITEGIC>MOL_PROPERTY
W(PB)
SciTegic.value.DoubleValue
-71.229

@<SCITEGIC>MOL_PROPERTY
W(SA)
SciTegic.value.DoubleValue
6.071

@<SCITEGIC>MOL_PROPERTY
Valence
SciTegic.value.DoubleValue
149.615

@<SCITEGIC>MOL_PROPERTY
Coulomb
SciTegic.value.DoubleValue
103.869

@<SCITEGIC>MOL_PROPERTY
VdW
SciTegic.value.DoubleValue
-17.433

@<SCITEGIC>MOL_PROPERTY
VdW6
SciTegic.value.DoubleValue
-175.142

@<SCITEGIC>MOL_PROPERTY
VdW12
SciTegic.value.DoubleValue
157.709

@<SCITEGIC>MOL_PROPERTY
Bond
SciTegic.value.DoubleValue
5.112

@<SCITEGIC>MOL_PROPERTY
Angle
SciTegic.value.DoubleValue
12.123

@<SCITEGIC>MOL_PROPERTY
Pdih
SciTegic.value.DoubleValue
132.379

@<SCITEGIC>MOL_PROPERTY
Idih
SciTegic.value.DoubleValue
0.000

@<SCITEGIC>MOL_PROPERTY
Tether
SciTegic.value.DoubleValue
0.000

@<TRIPOS>MOLECULE
CD_guest-6_vm2_single.mol2 : vm2 host+ligand conformer 2
         139         144           2
SMALL
USER_CHARGES
 
@<TRIPOS>ATOM
       1    C1      16.402073   15.329363   22.208968 C.3        1 MOL1         0.2972
       2    H1      15.377302   15.235035   22.589546 H          1 MOL1         0.0751
       3    O1      16.589447   16.561657   21.479650 O.3        1 MOL1        -0.3740
       4    C2      17.420127   15.279006   23.376959 C.3        1 MOL1         0.1003
       5    H2      17.320743   14.297469   23.857932 H          1 MOL1         0.0783
       6    O2      17.129260   16.302371   24.343738 O.3        1 MOL1        -0.5519
       7    H3      17.965692   16.819593   24.490896 H          1 MOL1         0.3769
       8    C3      18.865750   15.395256   22.832371 C.3        1 MOL1         0.1053
       9    H4      18.979295   16.386613   22.383190 H          1 MOL1         0.0783
      10    O3      19.810933   15.240211   23.898053 O.3        1 MOL1        -0.5519
      11    H5      19.846393   16.127473   24.345419 H          1 MOL1         0.3769
      12    C4      19.142156   14.359529   21.714362 C.3        1 MOL1         0.1018
      13    H6      19.280775   13.370288   22.169391 H          1 MOL1         0.0783
      14    C5      17.999398   14.304361   20.661085 C.3        1 MOL1         0.1043
      15    H7      18.051654   15.216886   20.052287 H          1 MOL1         0.0783
      16    O4      16.709383   14.233886   21.319836 O.3        1 MOL1        -0.3740
      17    C6      18.105956   13.098655   19.701068 C.3        1 MOL1         0.0138
      18    H8      19.022639   13.196316   19.104559 H          1 MOL1         0.0794
      19    H9      17.258460   13.127323   19.003180 H          1 MOL1         0.0794
      20    O5      18.114817   11.862244   20.420452 O.3        1 MOL1        -0.5486
      21    H10     17.290026   11.848922   20.955392 H          1 MOL1         0.3769
      22    C7      14.680066   20.211301   20.884587 C.3        1 MOL1         0.2972
      23    H11     13.965879   21.008561   20.643719 H          1 MOL1         0.0751
      24    O6      16.008113   20.727540   21.109109 O.3        1 MOL1        -0.3740
      25    C8      14.225933   19.457017   22.158245 C.3        1 MOL1         0.1003
      26    H12     13.237696   19.027277   21.948748 H          1 MOL1         0.0783
      27    O7      14.124732   20.344235   23.280843 O.3        1 MOL1        -0.5519
      28    H13     13.982976   19.751102   24.052679 H          1 MOL1         0.3769
      29    C9      15.189391   18.293007   22.490663 C.3        1 MOL1         0.1053
      30    H14     16.152516   18.728125   22.789218 H          1 MOL1         0.0783
      31    O8      14.639931   17.539595   23.578040 O.3        1 MOL1        -0.5519
      32    H15     15.402578   17.059314   23.986171 H          1 MOL1         0.3769
      33    C10     15.426017   17.382101   21.251181 C.3        1 MOL1         0.1018
      34    H16     14.535599   16.765688   21.069414 H          1 MOL1         0.0783
      35    C11     15.732124   18.203187   19.969501 C.3        1 MOL1         0.1043
      36    H17     16.737206   18.638297   20.055752 H          1 MOL1         0.0783
      37    O9      14.739519   19.247066   19.813293 O.3        1 MOL1        -0.3740
      38    C12     15.687560   17.326447   18.700333 C.3        1 MOL1         0.0138
      39    H18     14.682323   16.897976   18.590975 H          1 MOL1         0.0794
      40    H19     16.394931   16.494050   18.811026 H          1 MOL1         0.0794
      41    O10     16.026745   18.105615   17.551459 O.3        1 MOL1        -0.5486
      42    H20     15.417115   18.876497   17.558368 H          1 MOL1         0.3769
      43    C13     18.434699   24.054200   20.708851 C.3        1 MOL1         0.2972
      44    H21     18.878105   25.035673   20.497613 H          1 MOL1         0.0751
      45    O11     19.450877   23.082501   21.033197 O.3        1 MOL1        -0.3740
      46    C14     17.384545   24.152317   21.851760 C.3        1 MOL1         0.1003
      47    H22     16.594189   24.827816   21.500340 H          1 MOL1         0.0783
      48    O12     17.959544   24.706595   23.044890 O.3        1 MOL1        -0.5519
      49    H23     18.541301   24.004079   23.428653 H          1 MOL1         0.3769
      50    C15     16.732382   22.769879   22.122358 C.3        1 MOL1         0.1053
      51    H24     17.495735   22.108197   22.553311 H          1 MOL1         0.0783
      52    O13     15.631208   22.902451   23.030142 O.3        1 MOL1        -0.5519
      53    H25     15.236525   22.001628   23.134217 H          1 MOL1         0.3769
      54    C16     16.213050   22.122651   20.813552 C.3        1 MOL1         0.1018
      55    H26     15.281290   22.625185   20.522482 H          1 MOL1         0.0783
      56    C17     17.227715   22.213152   19.641985 C.3        1 MOL1         0.1043
      57    H27     18.048536   21.511697   19.839420 H          1 MOL1         0.0783
      58    O14     17.743432   23.565070   19.540336 O.3        1 MOL1        -0.3740
      59    C18     16.613778   21.841655   18.274480 C.3        1 MOL1         0.0138
      60    H28     16.275387   20.798839   18.307351 H          1 MOL1         0.0794
      61    H29     17.396444   21.906928   17.506956 H          1 MOL1         0.0794
      62    O15     15.521851   22.705772   17.945399 O.3        1 MOL1        -0.5486
      63    H30     15.877130   23.621566   17.984325 H          1 MOL1         0.3769
      64    C19     23.299469   22.556569   22.426147 C.3        1 MOL1         0.2972
      65    H31     24.301661   22.642439   22.864447 H          1 MOL1         0.0751
      66    O16     23.152626   21.338739   21.664583 O.3        1 MOL1        -0.3740
      67    C20     22.217826   22.586481   23.536941 C.3        1 MOL1         0.1003
      68    H32     22.295840   23.556089   24.045241 H          1 MOL1         0.0783
      69    O17     22.443259   21.537697   24.495024 O.3        1 MOL1        -0.5519
      70    H33     21.605473   21.004811   24.561014 H          1 MOL1         0.3769
      71    C21     20.804660   22.490780   22.912277 C.3        1 MOL1         0.1053
      72    H34     20.711672   21.500308   22.453819 H          1 MOL1         0.0783
      73    O18     19.805575   22.654356   23.926560 O.3        1 MOL1        -0.5519
      74    H35     19.755234   21.774649   24.385963 H          1 MOL1         0.3769
      75    C22     20.592524   23.535952   21.789131 C.3        1 MOL1         0.1018
      76    H36     20.425297   24.520435   22.244690 H          1 MOL1         0.0783
      77    C23     21.794526   23.606317   20.805639 C.3        1 MOL1         0.1043
      78    H37     21.780633   22.702570   20.182090 H          1 MOL1         0.0783
      79    O19     23.041520   23.669237   21.542566 O.3        1 MOL1        -0.3740
      80    C24     21.743730   24.825009   19.857625 C.3        1 MOL1         0.0138
      81    H38     20.864868   24.734565   19.205683 H          1 MOL1         0.0794
      82    H39     22.632020   24.806398   19.211974 H          1 MOL1         0.0794
      83    O20     21.689315   26.051595   20.591679 O.3        1 MOL1        -0.5486
      84    H40     22.480051   26.057784   21.175937 H          1 MOL1         0.3769
      85    C25     25.084950   17.694249   21.108542 C.3        1 MOL1         0.2972
      86    H41     25.810011   16.899151   20.894620 H          1 MOL1         0.0751
      87    O21     23.746990   17.176554   21.255568 O.3        1 MOL1        -0.3740
      88    C26     25.474364   18.433570   22.412567 C.3        1 MOL1         0.1003
      89    H42     26.468686   18.871510   22.255336 H          1 MOL1         0.0783
      90    O22     25.529210   17.533816   23.527935 O.3        1 MOL1        -0.5519
      91    H43     25.619654   18.120438   24.312593 H          1 MOL1         0.3769
      92    C27     24.490529   19.588407   22.714585 C.3        1 MOL1         0.1053
      93    H44     23.509049   19.149025   22.942816 H          1 MOL1         0.0783
      94    O23     24.973262   20.316069   23.850541 O.3        1 MOL1        -0.5519
      95    H45     24.186473   20.786681   24.222466 H          1 MOL1         0.3769
      96    C28     24.330036   20.525891   21.483935 C.3        1 MOL1         0.1018
      97    H46     25.228032   21.147437   21.370410 H          1 MOL1         0.0783
      98    C29     24.099281   19.727880   20.170606 C.3        1 MOL1         0.1043
      99    H47     23.090623   19.296050   20.199628 H          1 MOL1         0.0783
     100    O24     25.080478   18.668716   20.044968 O.3        1 MOL1        -0.3740
     101    C30     24.198544   20.608214   18.905175 C.3        1 MOL1         0.0138
     102    H48     23.451828   21.410815   18.966237 H          1 MOL1         0.0794
     103    H49     23.951493   19.994225   18.028912 H          1 MOL1         0.0794
     104    O25     25.509880   21.163235   18.766954 O.3        1 MOL1        -0.5486
     105    H50     26.131532   20.402685   18.811380 H          1 MOL1         0.3769
     106    C31     21.353487   13.842426   20.753245 C.3        1 MOL1         0.2972
     107    H51     20.919994   12.860397   20.524659 H          1 MOL1         0.0751
     108    O26     20.324703   14.815725   21.026915 O.3        1 MOL1        -0.3740
     109    C32     22.344791   13.749258   21.946830 C.3        1 MOL1         0.1003
     110    H52     23.152669   13.073767   21.637807 H          1 MOL1         0.0783
     111    O27     21.710343   13.197920   23.110953 O.3        1 MOL1        -0.5519
     112    H53     21.108246   13.900621   23.461717 H          1 MOL1         0.3769
     113    C33     22.980149   15.133941   22.244753 C.3        1 MOL1         0.1053
     114    H54     22.196084   15.796675   22.636159 H          1 MOL1         0.0783
     115    O28     24.035174   15.001630   23.205543 O.3        1 MOL1        -0.5519
     116    H55     24.424660   15.902342   23.328585 H          1 MOL1         0.3769
     117    C34     23.562935   15.778086   20.960764 C.3        1 MOL1         0.1018
     118    H56     24.510304   15.278101   20.720071 H          1 MOL1         0.0783
     119    C35     22.611590   15.678370   19.737760 C.3        1 MOL1         0.1043
     120    H57     21.780214   16.380240   19.884653 H          1 MOL1         0.0783
     121    O29     22.101791   14.325763   19.618066 O.3        1 MOL1        -0.3740
     122    C36     23.301332   16.038362   18.403263 C.3        1 MOL1         0.0138
     123    H58     23.657257   17.075717   18.450634 H          1 MOL1         0.0794
     124    H59     22.557980   15.983629   17.596836 H          1 MOL1         0.0794
     125    O30     24.392639   15.153292   18.132613 O.3        1 MOL1        -0.5486
     126    H60     24.020271   14.243968   18.165966 H          1 MOL1         0.3769
     127    C1      19.612934   18.997869   24.020876 C.2        1 MOL1         0.6021
     128    O1      20.091353   19.967193   24.580829 O.co2      1 MOL1        -0.6904
     129    O2      19.412462   17.926427   24.563048 O.co2      1 MOL1        -0.6904
     130    C2      19.257220   19.128376   22.541486 C.3        1 MOL1        -0.2102
     131    H1      18.937638   20.158425   22.350778 H          1 MOL1         0.0687
     132    H2      18.386920   18.497285   22.340019 H          1 MOL1         0.0687
     133    C3      20.426301   18.741591   21.601178 C.3        1 MOL1        -0.1974
     134    H3      21.294709   19.374499   21.819268 H          1 MOL1         0.0689
     135    H4      20.739018   17.708768   21.802946 H          1 MOL1         0.0689
     136    C4      20.037726   18.885511   20.116500 C.3        1 MOL1        -0.2987
     137    H5      19.766449   19.922749   19.884316 H          1 MOL1         0.0700
     138    H6      20.874242   18.601393   19.466596 H          1 MOL1         0.0700
     139    H7      19.183860   18.240390   19.872009 H          1 MOL1         0.0700
@<TRIPOS>BOND
    1     1     2    1
    2     1     3    1
    3     1     4    1
    4     4     5    1
    5     4     6    1
    6     6     7    1
    7     4     8    1
    8     8     9    1
    9     8    10    1
   10    10    11    1
   11     8    12    1
   12    12    13    1
   13    12    14    1
   14    14    15    1
   15     1    16    1
   16    14    16    1
   17    14    17    1
   18    17    18    1
   19    17    19    1
   20    17    20    1
   21    20    21    1
   22    22    23    1
   23    22    24    1
   24    22    25    1
   25    25    26    1
   26    25    27    1
   27    27    28    1
   28    25    29    1
   29    29    30    1
   30    29    31    1
   31    31    32    1
   32     3    33    1
   33    29    33    1
   34    33    34    1
   35    33    35    1
   36    35    36    1
   37    22    37    1
   38    35    37    1
   39    35    38    1
   40    38    39    1
   41    38    40    1
   42    38    41    1
   43    41    42    1
   44    43    44    1
   45    43    45    1
   46    43    46    1
   47    46    47    1
   48    46    48    1
   49    48    49    1
   50    46    50    1
   51    50    51    1
   52    50    52    1
   53    52    53    1
   54    24    54    1
   55    50    54    1
   56    54    55    1
   57    54    56    1
   58    56    57    1
   59    43    58    1
   60    56    58    1
   61    56    59    1
   62    59    60    1
   63    59    61    1
   64    59    62    1
   65    62    63    1
   66    64    65    1
   67    64    66    1
   68    64    67    1
   69    67    68    1
   70    67    69    1
   71    69    70    1
   72    67    71    1
   73    71    72    1
   74    71    73    1
   75    73    74    1
   76    45    75    1
   77    71    75    1
   78    75    76    1
   79    75    77    1
   80    77    78    1
   81    64    79    1
   82    77    79    1
   83    77    80    1
   84    80    81    1
   85    80    82    1
   86    80    83    1
   87    83    84    1
   88    85    86    1
   89    85    87    1
   90    85    88    1
   91    88    89    1
   92    88    90    1
   93    90    91    1
   94    88    92    1
   95    92    93    1
   96    92    94    1
   97    94    95    1
   98    66    96    1
   99    92    96    1
  100    96    97    1
  101    96    98    1
  102    98    99    1
  103    85   100    1
  104    98   100    1
  105    98   101    1
  106   101   102    1
  107   101   103    1
  108   101   104    1
  109   104   105    1
  110   106   107    1
  111    12   108    1
  112   106   108    1
  113   106   109    1
  114   109   110    1
  115   109   111    1
  116   111   112    1
  117   109   113    1
  118   113   114    1
  119   113   115    1
  120   115   116    1
  121    87   117    1
  122   113   117    1
  123   117   118    1
  124   117   119    1
  125   119   120    1
  126   106   121    1
  127   119   121    1
  128   119   122    1
  129   122   123    1
  130   122   124    1
  131   122   125    1
  132   125   126    1
  133   127   128    1
  134   127   129    2
  135   127   130    1
  136   130   131    1
  137   130   132    1
  138   130   133    1
  139   133   134    1
  140   133   135    1
  141   133   136    1
  142   136   137    1
  143   136   138    1
  144   136   139    1
@<TRIPOS>SUBSTRUCTURE
       1 MOL1            1 RESIDUE      1      MOL     
       2 MOL1          139 RESIDUE      1      MOL     
@<SCITEGIC>MOL_PROPERTY
VM2 Rank
SciTegic.value.IntegerValue
2

@<SCITEGIC>MOL_PROPERTY
Conf_Id
SciTegic.value.IntegerValue
11763

@<SCITEGIC>MOL_PROPERTY
Probability
SciTegic.value.DoubleValue
2.59

@<SCITEGIC>MOL_PROPERTY
Sum Probability
SciTegic.value.DoubleValue
5.19

@<SCITEGIC>MOL_PROPERTY
Delta G
SciTegic.value.DoubleValue
0.002

@<SCITEGIC>MOL_PROPERTY
G
SciTegic.value.DoubleValue
473.020

@<SCITEGIC>MOL_PROPERTY
E
SciTegic.value.DoubleValue
293.426

@<SCITEGIC>MOL_PROPERTY
-TS
SciTegic.value.DoubleValue
179.594

@<SCITEGIC>MOL_PROPERTY
U+W
SciTegic.value.DoubleValue
170.914

@<SCITEGIC>MOL_PROPERTY
U
SciTegic.value.DoubleValue
236.170

@<SCITEGIC>MOL_PROPERTY
W
SciTegic.value.DoubleValue
-65.255

@<SCITEGIC>MOL_PROPERTY
W(PB)
SciTegic.value.DoubleValue
-71.280

@<SCITEGIC>MOL_PROPERTY
W(SA)
SciTegic.value.DoubleValue
6.024

@<SCITEGIC>MOL_PROPERTY
Valence
SciTegic.value.DoubleValue
149.803

@<SCITEGIC>MOL_PROPERTY
Coulomb
SciTegic.value.DoubleValue
104.248

@<SCITEGIC>MOL_PROPERTY
VdW
SciTegic.value.DoubleValue
-17.882

@<SCITEGIC>MOL_PROPERTY
VdW6
SciTegic.value.DoubleValue
-175.197

@<SCITEGIC>MOL_PROPERTY
VdW12
SciTegic.value.DoubleValue
157.316

@<SCITEGIC>MOL_PROPERTY
Bond
SciTegic.value.DoubleValue
5.090

@<SCITEGIC>MOL_PROPERTY
Angle
SciTegic.value.DoubleValue
12.047

@<SCITEGIC>MOL_PROPERTY
Pdih
SciTegic.value.DoubleValue
132.666

@<SCITEGIC>MOL_PROPERTY
Idih
SciTegic.value.DoubleValue
0.000

@<SCITEGIC>MOL_PROPERTY
Tether
SciTegic.value.DoubleValue
0.000

@<TRIPOS>MOLECULE
CD_guest-6_vm2_single.mol2 : vm2 host+ligand conformer 3
         139         144           2
SMALL
USER_CHARGES
 
@<TRIPOS>ATOM
       1    C1      16.470933   15.342217   22.126347 C.3        1 MOL1         0.2972
       2    H1      15.433919   15.256722   22.474264 H          1 MOL1         0.0751
       3    O1      16.693841   16.574769   21.407191 O.3        1 MOL1        -0.3740
       4    C2      17.450901   15.285040   23.325471 C.3        1 MOL1         0.1003
       5    H2      17.330898   14.304317   23.803350 H          1 MOL1         0.0783
       6    O2      17.134247   16.311897   24.280897 O.3        1 MOL1        -0.5519
       7    H3      17.969818   16.820509   24.459202 H          1 MOL1         0.3769
       8    C3      18.913291   15.393554   22.824589 C.3        1 MOL1         0.1053
       9    H4      19.046249   16.386638   22.384691 H          1 MOL1         0.0783
      10    O3      19.827449   15.227920   23.915638 O.3        1 MOL1        -0.5519
      11    H5      19.854554   16.112746   24.368413 H          1 MOL1         0.3769
      12    C4      19.219160   14.363739   21.708358 C.3        1 MOL1         0.1018
      13    H6      19.354796   13.373278   22.161569 H          1 MOL1         0.0783
      14    C5      18.103913   14.307021   20.625879 C.3        1 MOL1         0.1043
      15    H7      18.173562   15.217303   20.015834 H          1 MOL1         0.0783
      16    O4      16.797712   14.242141   21.250536 O.3        1 MOL1        -0.3740
      17    C6      18.231516   13.098858   19.671687 C.3        1 MOL1         0.0138
      18    H8      19.161235   13.194596   19.095542 H          1 MOL1         0.0794
      19    H9      17.399732   13.126625   18.954991 H          1 MOL1         0.0794
      20    O5      18.223354   11.864139   20.393972 O.3        1 MOL1        -0.5486
      21    H10     17.385832   11.852062   20.908782 H          1 MOL1         0.3769
      22    C7      14.793525   20.219780   20.718472 C.3        1 MOL1         0.2972
      23    H11     14.081144   21.006738   20.441096 H          1 MOL1         0.0751
      24    O6      16.098389   20.756845   21.015516 O.3        1 MOL1        -0.3740
      25    C8      14.282835   19.454672   21.965015 C.3        1 MOL1         0.1003
      26    H12     13.312126   19.013421   21.703913 H          1 MOL1         0.0783
      27    O7      14.113922   20.337714   23.082906 O.3        1 MOL1        -0.5519
      28    H13     13.943847   19.740211   23.845688 H          1 MOL1         0.3769
      29    C9      15.242247   18.301795   22.345094 C.3        1 MOL1         0.1053
      30    H14     16.187601   18.748734   22.680469 H          1 MOL1         0.0783
      31    O8      14.659185   17.548042   23.414889 O.3        1 MOL1        -0.5519
      32    H15     15.409875   17.072609   23.850018 H          1 MOL1         0.3769
      33    C10     15.540007   17.390176   21.119911 C.3        1 MOL1         0.1018
      34    H16     14.662184   16.770221   20.894707 H          1 MOL1         0.0783
      35    C11     15.909562   18.219833   19.859813 C.3        1 MOL1         0.1043
      36    H17     16.901203   18.665500   20.016023 H          1 MOL1         0.0783
      37    O9      14.929523   19.265253   19.645858 O.3        1 MOL1        -0.3740
      38    C12     15.970705   17.368729   18.571967 C.3        1 MOL1         0.0138
      39    H18     16.721168   16.577585   18.698744 H          1 MOL1         0.0794
      40    H19     16.303084   18.007823   17.743146 H          1 MOL1         0.0794
      41    O10     14.694405   16.795288   18.273763 O.3        1 MOL1        -0.5486
      42    H20     14.056985   17.543881   18.264548 H          1 MOL1         0.3769
      43    C13     18.505718   24.099093   20.726666 C.3        1 MOL1         0.2972
      44    H21     18.955736   25.083736   20.546240 H          1 MOL1         0.0751
      45    O11     19.512572   23.117659   21.052744 O.3        1 MOL1        -0.3740
      46    C14     17.430152   24.175460   21.846758 C.3        1 MOL1         0.1003
      47    H22     16.643929   24.851823   21.487786 H          1 MOL1         0.0783
      48    O12     17.974919   24.715251   23.060366 O.3        1 MOL1        -0.5519
      49    H23     18.546406   24.007562   23.449941 H          1 MOL1         0.3769
      50    C15     16.781301   22.784820   22.079345 C.3        1 MOL1         0.1053
      51    H24     17.540091   22.119024   22.511813 H          1 MOL1         0.0783
      52    O13     15.662137   22.892726   22.968294 O.3        1 MOL1        -0.5519
      53    H25     15.260086   21.991480   23.031977 H          1 MOL1         0.3769
      54    C16     16.289905   22.159815   20.749223 C.3        1 MOL1         0.1018
      55    H26     15.355261   22.657065   20.458227 H          1 MOL1         0.0783
      56    C17     17.317328   22.285686   19.591097 C.3        1 MOL1         0.1043
      57    H27     18.136034   21.577859   19.774880 H          1 MOL1         0.0783
      58    O14     17.837129   23.638708   19.533852 O.3        1 MOL1        -0.3740
      59    C18     16.714968   21.959912   18.206315 C.3        1 MOL1         0.0138
      60    H28     16.364321   20.919937   18.201269 H          1 MOL1         0.0794
      61    H29     17.507020   22.041303   17.450034 H          1 MOL1         0.0794
      62    O15     15.636797   22.846678   17.892063 O.3        1 MOL1        -0.5486
      63    H30     16.001534   23.756583   17.967305 H          1 MOL1         0.3769
      64    C19     23.328054   22.578258   22.552644 C.3        1 MOL1         0.2972
      65    H31     24.314959   22.669070   23.023521 H          1 MOL1         0.0751
      66    O16     23.216891   21.364857   21.778123 O.3        1 MOL1        -0.3740
      67    C20     22.211182   22.596928   23.628934 C.3        1 MOL1         0.1003
      68    H32     22.268529   23.564874   24.143162 H          1 MOL1         0.0783
      69    O17     22.411716   21.547089   24.590848 O.3        1 MOL1        -0.5519
      70    H33     21.571507   21.016226   24.638644 H          1 MOL1         0.3769
      71    C21     20.817884   22.498384   22.961914 C.3        1 MOL1         0.1053
      72    H34     20.741945   21.511912   22.491868 H          1 MOL1         0.0783
      73    O18     19.790105   22.649700   23.948991 O.3        1 MOL1        -0.5519
      74    H35     19.732415   21.768082   24.403875 H          1 MOL1         0.3769
      75    C22     20.636979   23.554769   21.843804 C.3        1 MOL1         0.1018
      76    H36     20.463565   24.535665   22.304899 H          1 MOL1         0.0783
      77    C23     21.864915   23.628660   20.893210 C.3        1 MOL1         0.1043
      78    H37     21.868486   22.726296   20.267126 H          1 MOL1         0.0783
      79    O19     23.092170   23.691872   21.663805 O.3        1 MOL1        -0.3740
      80    C24     21.836891   24.850247   19.947870 C.3        1 MOL1         0.0138
      81    H38     20.973781   24.761783   19.274874 H          1 MOL1         0.0794
      82    H39     22.740208   24.833967   19.323474 H          1 MOL1         0.0794
      83    O20     21.764612   26.074471   20.684347 O.3        1 MOL1        -0.5486
      84    H40     22.540099   26.078340   21.288704 H          1 MOL1         0.3769
      85    C25     25.171709   17.727380   21.280669 C.3        1 MOL1         0.2972
      86    H41     25.903304   16.930962   21.096440 H          1 MOL1         0.0751
      87    O21     23.824521   17.216070   21.346493 O.3        1 MOL1        -0.3740
      88    C26     25.498770   18.450996   22.609680 C.3        1 MOL1         0.1003
      89    H42     26.500037   18.888594   22.503699 H          1 MOL1         0.0783
      90    O22     25.501969   17.541878   23.718061 O.3        1 MOL1        -0.5519
      91    H43     25.558468   18.121478   24.511121 H          1 MOL1         0.3769
      92    C27     24.505045   19.605012   22.875901 C.3        1 MOL1         0.1053
      93    H44     23.513911   19.167333   23.062046 H          1 MOL1         0.0783
      94    O23     24.947068   20.325711   24.032439 O.3        1 MOL1        -0.5519
      95    H45     24.148298   20.795803   24.378571 H          1 MOL1         0.3769
      96    C28     24.399583   20.550380   21.645487 C.3        1 MOL1         0.1018
      97    H46     25.302904   21.171143   21.578252 H          1 MOL1         0.0783
      98    C29     24.233812   19.769790   20.312429 C.3        1 MOL1         0.1043
      99    H47     23.221891   19.344905   20.271170 H          1 MOL1         0.0783
     100    O24     25.228110   18.716710   20.231658 O.3        1 MOL1        -0.3740
     101    C30     24.427243   20.688243   19.087355 C.3        1 MOL1         0.0138
     102    H48     25.451785   21.083647   19.089554 H          1 MOL1         0.0794
     103    H49     23.740354   21.541551   19.163554 H          1 MOL1         0.0794
     104    O25     24.172350   19.965470   17.881673 O.3        1 MOL1        -0.5486
     105    H50     24.727808   19.156486   17.924733 H          1 MOL1         0.3769
     106    C31     21.451582   13.872229   20.779106 C.3        1 MOL1         0.2972
     107    H51     21.029195   12.890305   20.530330 H          1 MOL1         0.0751
     108    O26     20.413204   14.834240   21.052776 O.3        1 MOL1        -0.3740
     109    C32     22.425712   13.771007   21.985252 C.3        1 MOL1         0.1003
     110    H52     23.236641   13.096074   21.683117 H          1 MOL1         0.0783
     111    O27     21.773834   13.213792   23.137102 O.3        1 MOL1        -0.5519
     112    H53     21.156312   13.909238   23.475372 H          1 MOL1         0.3769
     113    C33     23.059639   15.152222   22.303006 C.3        1 MOL1         0.1053
     114    H54     22.274659   15.806410   22.707178 H          1 MOL1         0.0783
     115    O28     24.114586   15.000431   23.260429 O.3        1 MOL1        -0.5519
     116    H55     24.480115   15.903604   23.430317 H          1 MOL1         0.3769
     117    C34     23.641389   15.822045   21.030130 C.3        1 MOL1         0.1018
     118    H56     24.588140   15.328547   20.773509 H          1 MOL1         0.0783
     119    C35     22.690944   15.741638   19.806561 C.3        1 MOL1         0.1043
     120    H57     21.851835   16.433080   19.959159 H          1 MOL1         0.0783
     121    O29     22.213434   14.379400   19.663476 O.3        1 MOL1        -0.3740
     122    C36     23.399848   16.126199   18.491777 C.3        1 MOL1         0.0138
     123    H58     24.238799   15.439510   18.317165 H          1 MOL1         0.0794
     124    H59     23.808311   17.140437   18.584750 H          1 MOL1         0.0794
     125    O30     22.474699   16.072695   17.404555 O.3        1 MOL1        -0.5486
     126    H60     22.008058   15.211340   17.490218 H          1 MOL1         0.3769
     127    C1      19.621825   18.993110   24.049526 C.2        1 MOL1         0.6021
     128    O1      19.425219   17.915956   24.581955 O.co2      1 MOL1        -0.6904
     129    O2      20.070403   19.967667   24.624744 O.co2      1 MOL1        -0.6904
     130    C2      19.294394   19.127048   22.564245 C.3        1 MOL1        -0.2102
     131    H1      18.968380   20.154734   22.371403 H          1 MOL1         0.0687
     132    H2      18.434663   18.488180   22.344022 H          1 MOL1         0.0687
     133    C3      20.484754   18.755939   21.644582 C.3        1 MOL1        -0.1974
     134    H3      21.338416   19.406345   21.869378 H          1 MOL1         0.0689
     135    H4      20.814024   17.730552   21.857834 H          1 MOL1         0.0689
     136    C4      20.114866   18.882055   20.153669 C.3        1 MOL1        -0.2987
     137    H5      19.801548   19.905923   19.915071 H          1 MOL1         0.0700
     138    H6      20.974970   18.635910   19.518062 H          1 MOL1         0.0700
     139    H7      19.296528   18.197803   19.896093 H          1 MOL1         0.0700
@<TRIPOS>BOND
    1     1     2    1
    2     1     3    1
    3     1     4    1
    4     4     5    1
    5     4     6    1
    6     6     7    1
    7     4     8    1
    8     8     9    1
    9     8    10    1
   10    10    11    1
   11     8    12    1
   12    12    13    1
   13    12    14    1
   14    14    15    1
   15     1    16    1
   16    14    16    1
   17    14    17    1
   18    17    18    1
   19    17    19    1
   20    17    20    1
   21    20    21    1
   22    22    23    1
   23    22    24    1
   24    22    25    1
   25    25    26    1
   26    25    27    1
   27    27    28    1
   28    25    29    1
   29    29    30    1
   30    29    31    1
   31    31    32    1
   32     3    33    1
   33    29    33    1
   34    33    34    1
   35    33    35    1
   36    35    36    1
   37    22    37    1
   38    35    37    1
   39    35    38    1
   40    38    39    1
   41    38    40    1
   42    38    41    1
   43    41    42    1
   44    43    44    1
   45    43    45    1
   46    43    46    1
   47    46    47    1
   48    46    48    1
   49    48    49    1
   50    46    50    1
   51    50    51    1
   52    50    52    1
   53    52    53    1
   54    24    54    1
   55    50    54    1
   56    54    55    1
   57    54    56    1
   58    56    57    1
   59    43    58    1
   60    56    58    1
   61    56    59    1
   62    59    60    1
   63    59    61    1
   64    59    62    1
   65    62    63    1
   66    64    65    1
   67    64    66    1
   68    64    67    1
   69    67    68    1
   70    67    69    1
   71    69    70    1
   72    67    71    1
   73    71    72    1
   74    71    73    1
   75    73    74    1
   76    45    75    1
   77    71    75    1
   78    75    76    1
   79    75    77    1
   80    77    78    1
   81    64    79    1
   82    77    79    1
   83    77    80    1
   84    80    81    1
   85    80    82    1
   86    80    83    1
   87    83    84    1
   88    85    86    1
   89    85    87    1
   90    85    88    1
   91    88    89    1
   92    88    90    1
   93    90    91    1
   94    88    92    1
   95    92    93    1
   96    92    94    1
   97    94    95    1
   98    66    96    1
   99    92    96    1
  100    96    97    1
  101    96    98    1
  102    98    99    1
  103    85   100    1
  104    98   100    1
  105    98   101    1
  106   101   102    1
  107   101   103    1
  108   101   104    1
  109   104   105    1
  110   106   107    1
  111    12   108    1
  112   106   108    1
  113   106   109    1
  114   109   110    1
  115   109   111    1
  116   111   112    1
  117   109   113    1
  118   113   114    1
  119   113   115    1
  120   115   116    1
  121    87   117    1
  122   113   117    1
  123   117   118    1
  124   117   119    1
  125   119   120    1
  126   106   121    1
  127   119   121    1
  128   119   122    1
  129   122   123    1
  130   122   124    1
  131   122   125    1
  132   125   126    1
  133   127   128    1
  134   127   129    2
  135   127   130    1
  136   130   131    1
  137   130   132    1
  138   130   133    1
  139   133   134    1
  140   133   135    1
  141   133   136    1
  142   136   137    1
  143   136   138    1
  144   136   139    1
@<TRIPOS>SUBSTRUCTURE
       1 MOL1            1 RESIDUE      1      MOL     
       2 MOL1          139 RESIDUE      1      MOL     
@<SCITEGIC>MOL_PROPERTY
VM2 Rank
SciTegic.value.IntegerValue
3

@<SCITEGIC>MOL_PROPERTY
Conf_Id
SciTegic.value.IntegerValue
14268

@<SCITEGIC>MOL_PROPERTY
Probability
SciTegic.value.DoubleValue
2.06

@<SCITEGIC>MOL_PROPERTY
Sum Probability
SciTegic.value.DoubleValue
7.25

@<SCITEGIC>MOL_PROPERTY
Delta G
SciTegic.value.DoubleValue
0.140

@<SCITEGIC>MOL_PROPERTY
G
SciTegic.value.DoubleValue
473.158

@<SCITEGIC>MOL_PROPERTY
E
SciTegic.value.DoubleValue
293.919

@<SCITEGIC>MOL_PROPERTY
-TS
SciTegic.value.DoubleValue
179.238

@<SCITEGIC>MOL_PROPERTY
U+W
SciTegic.value.DoubleValue
171.408

@<SCITEGIC>MOL_PROPERTY
U
SciTegic.value.DoubleValue
238.049

@<SCITEGIC>MOL_PROPERTY
W
SciTegic.value.DoubleValue
-66.641

@<SCITEGIC>MOL_PROPERTY
W(PB)
SciTegic.value.DoubleValue
-72.673

@<SCITEGIC>MOL_PROPERTY
W(SA)
SciTegic.value.DoubleValue
6.032

@<SCITEGIC>MOL_PROPERTY
Valence
SciTegic.value.DoubleValue
150.228

@<SCITEGIC>MOL_PROPERTY
Coulomb
SciTegic.value.DoubleValue
105.897

@<SCITEGIC>MOL_PROPERTY
VdW
SciTegic.value.DoubleValue
-18.076

@<SCITEGIC>MOL_PROPERTY
VdW6
SciTegic.value.DoubleValue
-174.595

@<SCITEGIC>MOL_PROPERTY
VdW12
SciTegic.value.DoubleValue
156.518

@<SCITEGIC>MOL_PROPERTY
Bond
SciTegic.value.DoubleValue
5.073

@<SCITEGIC>MOL_PROPERTY
Angle
SciTegic.value.DoubleValue
12.016

@<SCITEGIC>MOL_PROPERTY
Pdih
SciTegic.value.DoubleValue
133.140

@<SCITEGIC>MOL_PROPERTY
Idih
SciTegic.value.DoubleValue
0.000

@<SCITEGIC>MOL_PROPERTY
Tether
SciTegic.value.DoubleValue
0.000

@<TRIPOS>MOLECULE
CD_guest-6_vm2_single.mol2 : vm2 host+ligand conformer 4
         139         144           2
SMALL
USER_CHARGES
 
@<TRIPOS>ATOM
       1    C1      16.426146   15.333826   22.184638 C.3        1 MOL1         0.2972
       2    H1      15.400060   15.234857   22.560513 H          1 MOL1         0.0751
       3    O1      16.614453   16.572293   21.466183 O.3        1 MOL1        -0.3740
       4    C2      17.439528   15.275404   23.356264 C.3        1 MOL1         0.1003
       5    H2      17.339704   14.289922   23.828999 H          1 MOL1         0.0783
       6    O2      17.143287   16.290974   24.329665 O.3        1 MOL1        -0.5519
       7    H3      17.977929   16.809505   24.482491 H          1 MOL1         0.3769
       8    C3      18.887079   15.398567   22.818619 C.3        1 MOL1         0.1053
       9    H4      19.000834   16.394864   22.380516 H          1 MOL1         0.0783
      10    O3      19.829031   15.234089   23.885879 O.3        1 MOL1        -0.5519
      11    H5      19.862524   16.117502   24.340877 H          1 MOL1         0.3769
      12    C4      19.170367   14.375970   21.690364 C.3        1 MOL1         0.1018
      13    H6      19.313755   13.382558   22.134529 H          1 MOL1         0.0783
      14    C5      18.030811   14.326218   20.633285 C.3        1 MOL1         0.1043
      15    H7      18.082282   15.243991   20.032376 H          1 MOL1         0.0783
      16    O4      16.739013   14.246504   21.287530 O.3        1 MOL1        -0.3740
      17    C6      18.143473   13.129302   19.663050 C.3        1 MOL1         0.0138
      18    H8      19.060941   13.235292   19.069220 H          1 MOL1         0.0794
      19    H9      17.297296   13.161227   18.963700 H          1 MOL1         0.0794
      20    O5      18.155007   11.886664   20.371536 O.3        1 MOL1        -0.5486
      21    H10     17.329249   11.865902   20.904740 H          1 MOL1         0.3769
      22    C7      14.699837   20.217877   20.871453 C.3        1 MOL1         0.2972
      23    H11     13.985270   21.014840   20.630732 H          1 MOL1         0.0751
      24    O6      16.027043   20.734953   21.098677 O.3        1 MOL1        -0.3740
      25    C8      14.244243   19.460934   22.143080 C.3        1 MOL1         0.1003
      26    H12     13.257200   19.029788   21.930860 H          1 MOL1         0.0783
      27    O7      14.139126   20.346232   23.266811 O.3        1 MOL1        -0.5519
      28    H13     13.997488   19.751623   24.037534 H          1 MOL1         0.3769
      29    C9      15.209047   18.298124   22.475633 C.3        1 MOL1         0.1053
      30    H14     16.170816   18.734527   22.776637 H          1 MOL1         0.0783
      31    O8      14.659353   17.541474   23.560654 O.3        1 MOL1        -0.5519
      32    H15     15.421299   17.058040   23.966377 H          1 MOL1         0.3769
      33    C10     15.449561   17.389654   21.235309 C.3        1 MOL1         0.1018
      34    H16     14.560932   16.771310   21.051323 H          1 MOL1         0.0783
      35    C11     15.756050   18.212573   19.954872 C.3        1 MOL1         0.1043
      36    H17     16.760648   18.648634   20.042524 H          1 MOL1         0.0783
      37    O9      14.762287   19.255453   19.798721 O.3        1 MOL1        -0.3740
      38    C12     15.713497   17.337089   18.684770 C.3        1 MOL1         0.0138
      39    H18     14.708761   16.907788   18.574063 H          1 MOL1         0.0794
      40    H19     16.421513   16.505236   18.795233 H          1 MOL1         0.0794
      41    O10     16.052919   18.117733   17.536983 O.3        1 MOL1        -0.5486
      42    H20     15.443221   18.888581   17.544655 H          1 MOL1         0.3769
      43    C13     18.453540   24.063115   20.715963 C.3        1 MOL1         0.2972
      44    H21     18.898073   25.044762   20.507943 H          1 MOL1         0.0751
      45    O11     19.468005   23.092097   21.048194 O.3        1 MOL1        -0.3740
      46    C14     17.393857   24.161298   21.850145 C.3        1 MOL1         0.1003
      47    H22     16.606159   24.836231   21.491744 H          1 MOL1         0.0783
      48    O12     17.958329   24.716436   23.047865 O.3        1 MOL1        -0.5519
      49    H23     18.534180   24.012804   23.438434 H          1 MOL1         0.3769
      50    C15     16.740011   22.778802   22.116153 C.3        1 MOL1         0.1053
      51    H24     17.500048   22.117689   22.553710 H          1 MOL1         0.0783
      52    O13     15.631439   22.911435   23.014881 O.3        1 MOL1        -0.5519
      53    H25     15.239444   22.009575   23.120160 H          1 MOL1         0.3769
      54    C16     16.231967   22.130169   20.803679 C.3        1 MOL1         0.1018
      55    H26     15.301804   22.630960   20.504611 H          1 MOL1         0.0783
      56    C17     17.255832   22.221210   19.640190 C.3        1 MOL1         0.1043
      57    H27     18.075466   21.520389   19.844304 H          1 MOL1         0.0783
      58    O14     17.771582   23.573424   19.542199 O.3        1 MOL1        -0.3740
      59    C18     16.652930   21.848611   18.268100 C.3        1 MOL1         0.0138
      60    H28     16.314193   20.805831   18.299202 H          1 MOL1         0.0794
      61    H29     17.441789   21.913172   17.506872 H          1 MOL1         0.0794
      62    O15     15.563737   22.712530   17.929528 O.3        1 MOL1        -0.5486
      63    H30     15.918682   23.628342   17.970981 H          1 MOL1         0.3769
      64    C19     23.303848   22.577144   22.493000 C.3        1 MOL1         0.2972
      65    H31     24.298145   22.670536   22.947536 H          1 MOL1         0.0751
      66    O16     23.180345   21.360001   21.726478 O.3        1 MOL1        -0.3740
      67    C20     22.204074   22.600474   23.586686 C.3        1 MOL1         0.1003
      68    H32     22.269090   23.570420   24.096190 H          1 MOL1         0.0783
      69    O17     22.418797   21.553508   24.548908 O.3        1 MOL1        -0.5519
      70    H33     21.581511   21.018716   24.604940 H          1 MOL1         0.3769
      71    C21     20.801049   22.498000   22.941510 C.3        1 MOL1         0.1053
      72    H34     20.720014   21.508154   22.479649 H          1 MOL1         0.0783
      73    O18     19.786976   22.654809   23.941987 O.3        1 MOL1        -0.5519
      74    H35     19.734048   21.774344   24.399616 H          1 MOL1         0.3769
      75    C22     20.600855   23.544622   21.817896 C.3        1 MOL1         0.1018
      76    H36     20.428233   24.528461   22.272801 H          1 MOL1         0.0783
      77    C23     21.814947   23.616421   20.849543 C.3        1 MOL1         0.1043
      78    H37     21.811365   22.710909   20.228083 H          1 MOL1         0.0783
      79    O19     23.052996   23.685951   21.602215 O.3        1 MOL1        -0.3740
      80    C24     21.771123   24.832776   19.898117 C.3        1 MOL1         0.0138
      81    H38     20.899546   24.738388   19.236983 H          1 MOL1         0.0794
      82    H39     22.666168   24.815427   19.261947 H          1 MOL1         0.0794
      83    O20     21.705377   26.060824   20.628764 O.3        1 MOL1        -0.5486
      84    H40     22.488760   26.070056   21.222788 H          1 MOL1         0.3769
      85    C25     25.126800   17.721271   21.210218 C.3        1 MOL1         0.2972
      86    H41     25.853714   16.923297   21.014020 H          1 MOL1         0.0751
      87    O21     23.780899   17.212263   21.308235 O.3        1 MOL1        -0.3740
      88    C26     25.476518   18.447707   22.531866 C.3        1 MOL1         0.1003
      89    H42     26.477562   18.881635   22.410154 H          1 MOL1         0.0783
      90    O22     25.491614   17.539764   23.641762 O.3        1 MOL1        -0.5519
      91    H43     25.561969   18.119669   24.433341 H          1 MOL1         0.3769
      92    C27     24.489110   19.605574   22.809615 C.3        1 MOL1         0.1053
      93    H44     23.501145   19.169650   23.015518 H          1 MOL1         0.0783
      94    O23     24.950592   20.331850   23.954987 O.3        1 MOL1        -0.5519
      95    H45     24.157561   20.803220   24.312394 H          1 MOL1         0.3769
      96    C28     24.360722   20.545604   21.576659 C.3        1 MOL1         0.1018
      97    H46     25.262486   21.165993   21.488675 H          1 MOL1         0.0783
      98    C29     24.169119   19.757008   20.252308 C.3        1 MOL1         0.1043
      99    H47     23.158841   19.327355   20.235993 H          1 MOL1         0.0783
     100    O24     25.165520   18.708666   20.159079 O.3        1 MOL1        -0.3740
     101    C30     24.331070   20.662960   19.013874 C.3        1 MOL1         0.0138
     102    H48     25.344482   21.085958   19.004299 H          1 MOL1         0.0794
     103    H49     23.621118   21.497860   19.081630 H          1 MOL1         0.0794
     104    O25     24.090750   19.912779   17.821490 O.3        1 MOL1        -0.5486
     105    H50     24.684801   19.131110   17.869909 H          1 MOL1         0.3769
     106    C31     21.386678   13.887405   20.721009 C.3        1 MOL1         0.2972
     107    H51     20.959236   12.908986   20.467112 H          1 MOL1         0.0751
     108    O26     20.351668   14.848581   21.012503 O.3        1 MOL1        -0.3740
     109    C32     22.373087   13.770612   21.917147 C.3        1 MOL1         0.1003
     110    H52     23.181664   13.100493   21.598440 H          1 MOL1         0.0783
     111    O27     21.733170   13.197916   23.068019 O.3        1 MOL1        -0.5519
     112    H53     21.130252   13.894549   23.429374 H          1 MOL1         0.3769
     113    C33     23.008890   15.147873   22.247119 C.3        1 MOL1         0.1053
     114    H54     22.224368   15.801342   22.652987 H          1 MOL1         0.0783
     115    O28     24.062490   14.992602   23.206004 O.3        1 MOL1        -0.5519
     116    H55     24.437871   15.893453   23.366537 H          1 MOL1         0.3769
     117    C34     23.592370   15.822401   20.979229 C.3        1 MOL1         0.1018
     118    H56     24.537510   15.326459   20.722090 H          1 MOL1         0.0783
     119    C35     22.636439   15.755476   19.758091 C.3        1 MOL1         0.1043
     120    H57     21.801427   16.446781   19.930837 H          1 MOL1         0.0783
     121    O29     22.136065   14.403233   19.600504 O.3        1 MOL1        -0.3740
     122    C36     23.314692   16.165404   18.432611 C.3        1 MOL1         0.0138
     123    H58     23.649112   17.207410   18.511321 H          1 MOL1         0.0794
     124    H59     22.569922   16.121049   17.626856 H          1 MOL1         0.0794
     125    O30     24.422963   15.311489   18.132693 O.3        1 MOL1        -0.5486
     126    H60     24.068775   14.394456   18.133538 H          1 MOL1         0.3769
     127    C1      19.614772   18.997858   24.034981 C.2        1 MOL1         0.6021
     128    O1      20.075469   19.968810   24.607038 O.co2      1 MOL1        -0.6904
     129    O2      19.422754   17.919311   24.566246 O.co2      1 MOL1        -0.6904
     130    C2      19.271669   19.136688   22.553536 C.3        1 MOL1        -0.2102
     131    H1      18.948441   20.166392   22.367153 H          1 MOL1         0.0687
     132    H2      18.406546   18.502747   22.339371 H          1 MOL1         0.0687
     133    C3      20.451400   18.762494   21.621563 C.3        1 MOL1        -0.1974
     134    H3      21.318099   19.391377   21.857577 H          1 MOL1         0.0689
     135    H4      20.761091   17.726750   21.812388 H          1 MOL1         0.0689
     136    C4      20.080166   18.928776   20.134905 C.3        1 MOL1        -0.2987
     137    H5      19.809392   19.968962   19.916046 H          1 MOL1         0.0700
     138    H6      20.926120   18.659238   19.490580 H          1 MOL1         0.0700
     139    H7      19.231388   18.285392   19.869176 H          1 MOL1         0.0700
@<TRIPOS>BOND
    1     1     2    1
    2     1     3    1
    3     1     4    1
    4     4     5    1
    5     4     6    1
    6     6     7    1
    7     4     8    1
    8     8     9    1
    9     8    10    1
   10    10    11    1
   11     8    12    1
   12    12    13    1
   13    12    14    1
   14    14    15    1
   15     1    16    1
   16    14    16    1
   17    14    17    1
   18    17    18    1
   19    17    19    1
   20    17    20    1
   21    20    21    1
   22    22    23    1
   23    22    24    1
   24    22    25    1
   25    25    26    1
   26    25    27    1
   27    27    28    1
   28    25    29    1
   29    29    30    1
   30    29    31    1
   31    31    32    1
   32     3    33    1
   33    29    33    1
   34    33    34    1
   35    33    35    1
   36    35    36    1
   37    22    37    1
   38    35    37    1
   39    35    38    1
   40    38    39    1
   41    38    40    1
   42    38    41    1
   43    41    42    1
   44    43    44    1
   45    43    45    1
   46    43    46    1
   47    46    47    1
   48    46    48    1
   49    48    49    1
   50    46    50    1
   51    50    51    1
   52    50    52    1
   53    52    53    1
   54    24    54    1
   55    50    54    1
   56    54    55    1
   57    54    56    1
   58    56    57    1
   59    43    58    1
   60    56    58    1
   61    56    59    1
   62    59    60    1
   63    59    61    1
   64    59    62    1
   65    62    63    1
   66    64    65    1
   67    64    66    1
   68    64    67    1
   69    67    68    1
   70    67    69    1
   71    69    70    1
   72    67    71    1
   73    71    72    1
   74    71    73    1
   75    73    74    1
   76    45    75    1
   77    71    75    1
   78    75    76    1
   79    75    77    1
   80    77    78    1
   81    64    79    1
   82    77    79    1
   83    77    80    1
   84    80    81    1
   85    80    82    1
   86    80    83    1
   87    83    84    1
   88    85    86    1
   89    85    87    1
   90    85    88    1
   91    88    89    1
   92    88    90    1
   93    90    91    1
   94    88    92    1
   95    92    93    1
   96    92    94    1
   97    94    95    1
   98    66    96    1
   99    92    96    1
  100    96    97    1
  101    96    98    1
  102    98    99    1
  103    85   100    1
  104    98   100    1
  105    98   101    1
  106   101   102    1
  107   101   103    1
  108   101   104    1
  109   104   105    1
  110   106   107    1
  111    12   108    1
  112   106   108    1
  113   106   109    1
  114   109   110    1
  115   109   111    1
  116   111   112    1
  117   109   113    1
  118   113   114    1
  119   113   115    1
  120   115   116    1
  121    87   117    1
  122   113   117    1
  123   117   118    1
  124   117   119    1
  125   119   120    1
  126   106   121    1
  127   119   121    1
  128   119   122    1
  129   122   123    1
  130   122   124    1
  131   122   125    1
  132   125   126    1
  133   127   128    1
  134   127   129    2
  135   127   130    1
  136   130   131    1
  137   130   132    1
  138   130   133    1
  139   133   134    1
  140   133   135    1
  141   133   136    1
  142   136   137    1
  143   136   138    1
  144   136   139    1
@<TRIPOS>SUBSTRUCTURE
       1 MOL1            1 RESIDUE      1      MOL     
       2 MOL1          139 RESIDUE      1      MOL     
@<SCITEGIC>MOL_PROPERTY
VM2 Rank
SciTegic.value.IntegerValue
4

@<SCITEGIC>MOL_PROPERTY
Conf_Id
SciTegic.value.IntegerValue
16036

@<SCITEGIC>MOL_PROPERTY
Probability
SciTegic.value.DoubleValue
1.96

@<SCITEGIC>MOL_PROPERTY
Sum Probability
SciTegic.value.DoubleValue
9.22

@<SCITEGIC>MOL_PROPERTY
Delta G
SciTegic.value.DoubleValue
0.167

@<SCITEGIC>MOL_PROPERTY
G
SciTegic.value.DoubleValue
473.185

@<SCITEGIC>MOL_PROPERTY
E
SciTegic.value.DoubleValue
293.601

@<SCITEGIC>MOL_PROPERTY
-TS
SciTegic.value.DoubleValue
179.584

@<SCITEGIC>MOL_PROPERTY
U+W
SciTegic.value.DoubleValue
171.090

@<SCITEGIC>MOL_PROPERTY
U
SciTegic.value.DoubleValue
236.463

@<SCITEGIC>MOL_PROPERTY
W
SciTegic.value.DoubleValue
-65.373

@<SCITEGIC>MOL_PROPERTY
W(PB)
SciTegic.value.DoubleValue
-71.367

@<SCITEGIC>MOL_PROPERTY
W(SA)
SciTegic.value.DoubleValue
5.993

@<SCITEGIC>MOL_PROPERTY
Valence
SciTegic.value.DoubleValue
149.965

@<SCITEGIC>MOL_PROPERTY
Coulomb
SciTegic.value.DoubleValue
104.841

@<SCITEGIC>MOL_PROPERTY
VdW
SciTegic.value.DoubleValue
-18.343

@<SCITEGIC>MOL_PROPERTY
VdW6
SciTegic.value.DoubleValue
-175.284

@<SCITEGIC>MOL_PROPERTY
VdW12
SciTegic.value.DoubleValue
156.941

@<SCITEGIC>MOL_PROPERTY
Bond
SciTegic.value.DoubleValue
5.067

@<SCITEGIC>MOL_PROPERTY
Angle
SciTegic.value.DoubleValue
11.990

@<SCITEGIC>MOL_PROPERTY
Pdih
SciTegic.value.DoubleValue
132.907

@<SCITEGIC>MOL_PROPERTY
Idih
SciTegic.value.DoubleValue
0.000

@<SCITEGIC>MOL_PROPERTY
Tether
SciTegic.value.DoubleValue
0.000

@<TRIPOS>MOLECULE
CD_guest-6_vm2_single.mol2 : vm2 host+ligand conformer 5
         139         144           2
SMALL
USER_CHARGES
 
@<TRIPOS>ATOM
       1    C1      16.447593   15.337631   22.155957 C.3        1 MOL1         0.2972
       2    H1      15.417077   15.250252   22.522383 H          1 MOL1         0.0751
       3    O1      16.649887   16.562616   21.418864 O.3        1 MOL1        -0.3740
       4    C2      17.448792   15.293915   23.339293 C.3        1 MOL1         0.1003
       5    H2      17.333694   14.319545   23.831171 H          1 MOL1         0.0783
       6    O2      17.158612   16.333917   24.289490 O.3        1 MOL1        -0.5519
       7    H3      17.990179   16.865311   24.417376 H          1 MOL1         0.3769
       8    C3      18.902293   15.392434   22.815792 C.3        1 MOL1         0.1053
       9    H4      19.028910   16.387587   22.375643 H          1 MOL1         0.0783
      10    O3      19.828639   15.215950   23.894931 O.3        1 MOL1        -0.5519
      11    H5      19.848850   16.091191   24.365069 H          1 MOL1         0.3769
      12    C4      19.190656   14.358874   21.699011 C.3        1 MOL1         0.1018
      13    H6      19.327354   13.369512   22.154190 H          1 MOL1         0.0783
      14    C5      18.059647   14.300037   20.633873 C.3        1 MOL1         0.1043
      15    H7      18.118148   15.209576   20.021416 H          1 MOL1         0.0783
      16    O4      16.764361   14.232899   21.281670 O.3        1 MOL1        -0.3740
      17    C6      18.174363   13.090413   19.679881 C.3        1 MOL1         0.0138
      18    H8      19.095910   13.185813   19.090666 H          1 MOL1         0.0794
      19    H9      17.332507   13.116580   18.974993 H          1 MOL1         0.0794
      20    O5      18.177250   11.856746   20.404001 O.3        1 MOL1        -0.5486
      21    H10     17.348180   11.845984   20.932372 H          1 MOL1         0.3769
      22    C7      14.757153   20.211397   20.754825 C.3        1 MOL1         0.2972
      23    H11     14.046789   21.006345   20.495791 H          1 MOL1         0.0751
      24    O6      16.079608   20.731283   21.000620 O.3        1 MOL1        -0.3740
      25    C8      14.278288   19.460997   22.022325 C.3        1 MOL1         0.1003
      26    H12     13.298651   19.022446   21.791737 H          1 MOL1         0.0783
      27    O7      14.142427   20.351622   23.138079 O.3        1 MOL1        -0.5519
      28    H13     13.998444   19.758447   23.909716 H          1 MOL1         0.3769
      29    C9      15.241098   18.305608   22.384174 C.3        1 MOL1         0.1053
      30    H14     16.203459   18.744688   22.683487 H          1 MOL1         0.0783
      31    O8      14.681759   17.568695   23.478289 O.3        1 MOL1        -0.5519
      32    H15     15.441091   17.094347   23.899312 H          1 MOL1         0.3769
      33    C10     15.488799   17.377900   21.160713 C.3        1 MOL1         0.1018
      34    H16     14.601043   16.758039   20.978309 H          1 MOL1         0.0783
      35    C11     15.812446   18.186878   19.873918 C.3        1 MOL1         0.1043
      36    H17     16.815550   18.619992   19.978848 H          1 MOL1         0.0783
      37    O9      14.840424   19.245460   19.686643 O.3        1 MOL1        -0.3740
      38    C12     15.806220   17.316896   18.597476 C.3        1 MOL1         0.0138
      39    H18     16.548480   16.515101   18.705334 H          1 MOL1         0.0794
      40    H19     16.114147   17.938547   17.746249 H          1 MOL1         0.0794
      41    O10     14.509432   16.760845   18.360962 O.3        1 MOL1        -0.5486
      42    H20     13.884494   17.519966   18.366732 H          1 MOL1         0.3769
      43    C13     18.495865   24.071639   20.698568 C.3        1 MOL1         0.2972
      44    H21     18.943768   25.055919   20.511128 H          1 MOL1         0.0751
      45    O11     19.504018   23.094620   21.030320 O.3        1 MOL1        -0.3740
      46    C14     17.425132   24.152088   21.822471 C.3        1 MOL1         0.1003
      47    H22     16.639727   24.830649   21.465896 H          1 MOL1         0.0783
      48    O12     17.977577   24.691312   23.033116 O.3        1 MOL1        -0.5519
      49    H23     18.552920   23.984143   23.418123 H          1 MOL1         0.3769
      50    C15     16.772030   22.764287   22.061543 C.3        1 MOL1         0.1053
      51    H24     17.527987   22.097622   22.498772 H          1 MOL1         0.0783
      52    O13     15.653631   22.886308   22.949213 O.3        1 MOL1        -0.5519
      53    H25     15.256835   21.984474   23.035027 H          1 MOL1         0.3769
      54    C16     16.279037   22.133352   20.734111 C.3        1 MOL1         0.1018
      55    H26     15.348627   22.634018   20.435621 H          1 MOL1         0.0783
      56    C17     17.310379   22.248036   19.579144 C.3        1 MOL1         0.1043
      57    H27     18.130519   21.544687   19.773672 H          1 MOL1         0.0783
      58    O14     17.826367   23.601791   19.509789 O.3        1 MOL1        -0.3740
      59    C18     16.712464   21.903470   18.197124 C.3        1 MOL1         0.0138
      60    H28     16.355516   20.865433   18.208259 H          1 MOL1         0.0794
      61    H29     17.508289   21.968107   17.443224 H          1 MOL1         0.0794
      62    O15     15.640683   22.791118   17.864098 O.3        1 MOL1        -0.5486
      63    H30     16.008817   23.700180   17.932861 H          1 MOL1         0.3769
      64    C19     23.333366   22.565054   22.481368 C.3        1 MOL1         0.2972
      65    H31     24.328559   22.655435   22.934437 H          1 MOL1         0.0751
      66    O16     23.199798   21.340513   21.726853 O.3        1 MOL1        -0.3740
      67    C20     22.235233   22.601263   23.575105 C.3        1 MOL1         0.1003
      68    H32     22.299752   23.576988   24.073525 H          1 MOL1         0.0783
      69    O17     22.457295   21.566628   24.548195 O.3        1 MOL1        -0.5519
      70    H33     21.610854   21.052154   24.634966 H          1 MOL1         0.3769
      71    C21     20.831686   22.492389   22.928278 C.3        1 MOL1         0.1053
      72    H34     20.750335   21.506632   22.460419 H          1 MOL1         0.0783
      73    O18     19.813642   22.635703   23.926411 O.3        1 MOL1        -0.5519
      74    H35     19.747127   21.743868   24.361013 H          1 MOL1         0.3769
      75    C22     20.634726   23.541427   21.805658 C.3        1 MOL1         0.1018
      76    H36     20.464076   24.525248   22.261507 H          1 MOL1         0.0783
      77    C23     21.849641   23.608996   20.837375 C.3        1 MOL1         0.1043
      78    H37     21.843411   22.703478   20.216209 H          1 MOL1         0.0783
      79    O19     23.087874   23.672830   21.588417 O.3        1 MOL1        -0.3740
      80    C24     21.811275   24.825495   19.885932 C.3        1 MOL1         0.0138
      81    H38     20.940637   24.733880   19.223180 H          1 MOL1         0.0794
      82    H39     22.707605   24.805169   19.251549 H          1 MOL1         0.0794
      83    O20     21.748009   26.053694   20.616633 O.3        1 MOL1        -0.5486
      84    H40     22.532139   26.061619   21.209682 H          1 MOL1         0.3769
      85    C25     25.148598   17.694752   21.239103 C.3        1 MOL1         0.2972
      86    H41     25.878786   16.898551   21.048368 H          1 MOL1         0.0751
      87    O21     23.808424   17.176766   21.360573 O.3        1 MOL1        -0.3740
      88    C26     25.511946   18.442209   22.545415 C.3        1 MOL1         0.1003
      89    H42     26.512750   18.872251   22.408778 H          1 MOL1         0.0783
      90    O22     25.533097   17.546393   23.665545 O.3        1 MOL1        -0.5519
      91    H43     25.618220   18.133859   24.449985 H          1 MOL1         0.3769
      92    C27     24.529149   19.604967   22.818158 C.3        1 MOL1         0.1053
      93    H44     23.546959   19.168201   23.042753 H          1 MOL1         0.0783
      94    O23     24.999219   20.346242   23.950310 O.3        1 MOL1        -0.5519
      95    H45     24.209053   20.822581   24.307420 H          1 MOL1         0.3769
      96    C28     24.381518   20.527399   21.573462 C.3        1 MOL1         0.1018
      97    H46     25.279522   21.149708   21.464118 H          1 MOL1         0.0783
      98    C29     24.170785   19.713186   20.266813 C.3        1 MOL1         0.1043
      99    H47     23.162909   19.276701   20.288753 H          1 MOL1         0.0783
     100    O24     25.161584   18.659239   20.167439 O.3        1 MOL1        -0.3740
     101    C30     24.280908   20.578418   18.991835 C.3        1 MOL1         0.0138
     102    H48     23.528258   21.376753   19.033144 H          1 MOL1         0.0794
     103    H49     24.048940   19.951853   18.120203 H          1 MOL1         0.0794
     104    O25     25.590276   21.140570   18.863759 O.3        1 MOL1        -0.5486
     105    H50     26.216683   20.385319   18.926451 H          1 MOL1         0.3769
     106    C31     21.417050   13.855582   20.758226 C.3        1 MOL1         0.2972
     107    H51     20.990773   12.876842   20.503554 H          1 MOL1         0.0751
     108    O26     20.380716   14.821760   21.029251 O.3        1 MOL1        -0.3740
     109    C32     22.390425   13.742509   21.965450 C.3        1 MOL1         0.1003
     110    H52     23.200324   13.068351   21.658849 H          1 MOL1         0.0783
     111    O27     21.738253   13.178082   23.113257 O.3        1 MOL1        -0.5519
     112    H53     21.128657   13.875501   23.461546 H          1 MOL1         0.3769
     113    C33     23.026393   15.120289   22.292140 C.3        1 MOL1         0.1053
     114    H54     22.239446   15.775344   22.689881 H          1 MOL1         0.0783
     115    O28     24.075281   14.973483   23.257784 O.3        1 MOL1        -0.5519
     116    H55     24.451636   15.875197   23.410769 H          1 MOL1         0.3769
     117    C34     23.618822   15.788894   21.025218 C.3        1 MOL1         0.1018
     118    H56     24.564134   15.289916   20.773691 H          1 MOL1         0.0783
     119    C35     22.673673   15.721531   19.796654 C.3        1 MOL1         0.1043
     120    H57     21.841271   16.420390   19.950584 H          1 MOL1         0.0783
     121    O29     22.183753   14.364229   19.646522 O.3        1 MOL1        -0.3740
     122    C36     23.388346   16.101738   18.483160 C.3        1 MOL1         0.0138
     123    H58     24.205125   15.392004   18.295762 H          1 MOL1         0.0794
     124    H59     23.828940   17.101517   18.583340 H          1 MOL1         0.0794
     125    O30     22.456309   16.090737   17.400417 O.3        1 MOL1        -0.5486
     126    H60     21.975369   15.235421   17.466709 H          1 MOL1         0.3769
     127    C1      20.009344   18.877701   24.034071 C.2        1 MOL1         0.6021
     128    O1      20.161847   19.944780   24.600029 O.co2      1 MOL1        -0.6904
     129    O2      19.501055   17.898606   24.548810 O.co2      1 MOL1        -0.6904
     130    C2      20.470514   18.766858   22.582471 C.3        1 MOL1        -0.2102
     131    H1      20.804506   17.739721   22.400355 H          1 MOL1         0.0687
     132    H2      21.351983   19.401349   22.453844 H          1 MOL1         0.0687
     133    C3      19.371743   19.166667   21.565932 C.3        1 MOL1        -0.1974
     134    H3      18.500889   18.513120   21.694695 H          1 MOL1         0.0689
     135    H4      19.025210   20.187149   21.775424 H          1 MOL1         0.0689
     136    C4      19.877902   19.080102   20.112567 C.3        1 MOL1        -0.2987
     137    H5      20.195650   18.058394   19.870479 H          1 MOL1         0.0700
     138    H6      19.086337   19.362798   19.408052 H          1 MOL1         0.0700
     139    H7      20.729284   19.754762   19.955635 H          1 MOL1         0.0700
@<TRIPOS>BOND
    1     1     2    1
    2     1     3    1
    3     1     4    1
    4     4     5    1
    5     4     6    1
    6     6     7    1
    7     4     8    1
    8     8     9    1
    9     8    10    1
   10    10    11    1
   11     8    12    1
   12    12    13    1
   13    12    14    1
   14    14    15    1
   15     1    16    1
   16    14    16    1
   17    14    17    1
   18    17    18    1
   19    17    19    1
   20    17    20    1
   21    20    21    1
   22    22    23    1
   23    22    24    1
   24    22    25    1
   25    25    26    1
   26    25    27    1
   27    27    28    1
   28    25    29    1
   29    29    30    1
   30    29    31    1
   31    31    32    1
   32     3    33    1
   33    29    33    1
   34    33    34    1
   35    33    35    1
   36    35    36    1
   37    22    37    1
   38    35    37    1
   39    35    38    1
   40    38    39    1
   41    38    40    1
   42    38    41    1
   43    41    42    1
   44    43    44    1
   45    43    45    1
   46    43    46    1
   47    46    47    1
   48    46    48    1
   49    48    49    1
   50    46    50    1
   51    50    51    1
   52    50    52    1
   53    52    53    1
   54    24    54    1
   55    50    54    1
   56    54    55    1
   57    54    56    1
   58    56    57    1
   59    43    58    1
   60    56    58    1
   61    56    59    1
   62    59    60    1
   63    59    61    1
   64    59    62    1
   65    62    63    1
   66    64    65    1
   67    64    66    1
   68    64    67    1
   69    67    68    1
   70    67    69    1
   71    69    70    1
   72    67    71    1
   73    71    72    1
   74    71    73    1
   75    73    74    1
   76    45    75    1
   77    71    75    1
   78    75    76    1
   79    75    77    1
   80    77    78    1
   81    64    79    1
   82    77    79    1
   83    77    80    1
   84    80    81    1
   85    80    82    1
   86    80    83    1
   87    83    84    1
   88    85    86    1
   89    85    87    1
   90    85    88    1
   91    88    89    1
   92    88    90    1
   93    90    91    1
   94    88    92    1
   95    92    93    1
   96    92    94    1
   97    94    95    1
   98    66    96    1
   99    92    96    1
  100    96    97    1
  101    96    98    1
  102    98    99    1
  103    85   100    1
  104    98   100    1
  105    98   101    1
  106   101   102    1
  107   101   103    1
  108   101   104    1
  109   104   105    1
  110   106   107    1
  111    12   108    1
  112   106   108    1
  113   106   109    1
  114   109   110    1
  115   109   111    1
  116   111   112    1
  117   109   113    1
  118   113   114    1
  119   113   115    1
  120   115   116    1
  121    87   117    1
  122   113   117    1
  123   117   118    1
  124   117   119    1
  125   119   120    1
  126   106   121    1
  127   119   121    1
  128   119   122    1
  129   122   123    1
  130   122   124    1
  131   122   125    1
  132   125   126    1
  133   127   128    1
  134   127   129    2
  135   127   130    1
  136   130   131    1
  137   130   132    1
  138   130   133    1
  139   133   134    1
  140   133   135    1
  141   133   136    1
  142   136   137    1
  143   136   138    1
  144   136   139    1
@<TRIPOS>SUBSTRUCTURE
       1 MOL1            1 RESIDUE      1      MOL     
       2 MOL1          139 RESIDUE      1      MOL     
@<SCITEGIC>MOL_PROPERTY
VM2 Rank
SciTegic.value.IntegerValue
5

@<SCITEGIC>MOL_PROPERTY
Conf_Id
SciTegic.value.IntegerValue
21493

@<SCITEGIC>MOL_PROPERTY
Probability
SciTegic.value.DoubleValue
1.87

@<SCITEGIC>MOL_PROPERTY
Sum Probability
SciTegic.value.DoubleValue
11.08

@<SCITEGIC>MOL_PROPERTY
Delta G
SciTegic.value.DoubleValue
0.197

@<SCITEGIC>MOL_PROPERTY
G
SciTegic.value.DoubleValue
473.215

@<SCITEGIC>MOL_PROPERTY
E
SciTegic.value.DoubleValue
293.806

@<SCITEGIC>MOL_PROPERTY
-TS
SciTegic.value.DoubleValue
179.409

@<SCITEGIC>MOL_PROPERTY
U+W
SciTegic.value.DoubleValue
171.295

@<SCITEGIC>MOL_PROPERTY
U
SciTegic.value.DoubleValue
236.828

@<SCITEGIC>MOL_PROPERTY
W
SciTegic.value.DoubleValue
-65.533

@<SCITEGIC>MOL_PROPERTY
W(PB)
SciTegic.value.DoubleValue
-71.579

@<SCITEGIC>MOL_PROPERTY
W(SA)
SciTegic.value.DoubleValue
6.046

@<SCITEGIC>MOL_PROPERTY
Valence
SciTegic.value.DoubleValue
150.010

@<SCITEGIC>MOL_PROPERTY
Coulomb
SciTegic.value.DoubleValue
104.482

@<SCITEGIC>MOL_PROPERTY
VdW
SciTegic.value.DoubleValue
-17.664

@<SCITEGIC>MOL_PROPERTY
VdW6
SciTegic.value.DoubleValue
-174.660

@<SCITEGIC>MOL_PROPERTY
VdW12
SciTegic.value.DoubleValue
156.996

@<SCITEGIC>MOL_PROPERTY
Bond
SciTegic.value.DoubleValue
5.099

@<SCITEGIC>MOL_PROPERTY
Angle
SciTegic.value.DoubleValue
12.092

@<SCITEGIC>MOL_PROPERTY
Pdih
SciTegic.value.DoubleValue
132.819

@<SCITEGIC>MOL_PROPERTY
Idih
SciTegic.value.DoubleValue
0.000

@<SCITEGIC>MOL_PROPERTY
Tether
SciTegic.value.DoubleValue
0.000

@<TRIPOS>MOLECULE
CD_guest-6_vm2_single.mol2 : vm2 host+ligand conformer 6
         139         144           2
SMALL
USER_CHARGES
 
@<TRIPOS>ATOM
       1    C1      16.416526   15.333430   22.220397 C.3        1 MOL1         0.2972
       2    H1      15.395942   15.229520   22.609751 H          1 MOL1         0.0751
       3    O1      16.591048   16.576165   21.505845 O.3        1 MOL1        -0.3740
       4    C2      17.445552   15.271404   23.378181 C.3        1 MOL1         0.1003
       5    H2      17.353796   14.283458   23.847397 H          1 MOL1         0.0783
       6    O2      17.160227   16.281611   24.360344 O.3        1 MOL1        -0.5519
       7    H3      17.997710   16.796277   24.510483 H          1 MOL1         0.3769
       8    C3      18.885853   15.399863   22.822788 C.3        1 MOL1         0.1053
       9    H4      18.992556   16.398699   22.388969 H          1 MOL1         0.0783
      10    O3      19.841409   15.230490   23.877160 O.3        1 MOL1        -0.5519
      11    H5      19.879669   16.111078   24.337266 H          1 MOL1         0.3769
      12    C4      19.156529   14.384583   21.684919 C.3        1 MOL1         0.1018
      13    H6      19.307413   13.388721   22.121010 H          1 MOL1         0.0783
      14    C5      18.003472   14.339254   20.642385 C.3        1 MOL1         0.1043
      15    H7      18.045109   15.261102   20.046882 H          1 MOL1         0.0783
      16    O4      16.720455   14.252117   21.312970 O.3        1 MOL1        -0.3740
      17    C6      18.106276   13.149013   19.662915 C.3        1 MOL1         0.0138
      18    H8      19.016055   13.260768   19.058402 H          1 MOL1         0.0794
      19    H9      17.251355   13.183885   18.974424 H          1 MOL1         0.0794
      20    O5      18.129050   11.901765   20.362983 O.3        1 MOL1        -0.5486
      21    H10     17.310365   11.876161   20.906778 H          1 MOL1         0.3769
      22    C7      14.662334   20.215844   20.935467 C.3        1 MOL1         0.2972
      23    H11     13.942350   21.011933   20.708906 H          1 MOL1         0.0751
      24    O6      15.994462   20.734423   21.129236 O.3        1 MOL1        -0.3740
      25    C8      14.230092   19.459941   22.215929 C.3        1 MOL1         0.1003
      26    H12     13.241062   19.025472   22.020255 H          1 MOL1         0.0783
      27    O7      14.139344   20.345307   23.340249 O.3        1 MOL1        -0.5519
      28    H13     14.012329   19.750300   24.113345 H          1 MOL1         0.3769
      29    C9      15.202299   18.300548   22.534462 C.3        1 MOL1         0.1053
      30    H14     16.168756   18.739185   22.816324 H          1 MOL1         0.0783
      31    O8      14.673135   17.546012   23.631109 O.3        1 MOL1        -0.5519
      32    H15     15.441469   17.059501   24.020825 H          1 MOL1         0.3769
      33    C10     15.419545   17.389038   21.292885 C.3        1 MOL1         0.1018
      34    H16     14.529052   16.767384   21.130125 H          1 MOL1         0.0783
      35    C11     15.697535   18.205609   20.001428 C.3        1 MOL1         0.1043
      36    H17     16.706129   18.637438   20.062384 H          1 MOL1         0.0783
      37    O9      14.704518   19.253161   19.861591 O.3        1 MOL1        -0.3740
      38    C12     15.619785   17.319017   18.740392 C.3        1 MOL1         0.0138
      39    H18     14.600051   16.924498   18.637657 H          1 MOL1         0.0794
      40    H19     16.297654   16.463292   18.857685 H          1 MOL1         0.0794
      41    O10     15.984389   18.071393   17.582032 O.3        1 MOL1        -0.5486
      42    H20     15.423845   18.877836   17.590344 H          1 MOL1         0.3769
      43    C13     18.402092   24.078584   20.769420 C.3        1 MOL1         0.2972
      44    H21     18.842343   25.063354   20.567091 H          1 MOL1         0.0751
      45    O11     19.420639   23.106832   21.086271 O.3        1 MOL1        -0.3740
      46    C14     17.349836   24.162823   21.910376 C.3        1 MOL1         0.1003
      47    H22     16.559799   24.841299   21.564017 H          1 MOL1         0.0783
      48    O12     17.920506   24.705307   23.110926 O.3        1 MOL1        -0.5519
      49    H23     18.504914   24.000835   23.487015 H          1 MOL1         0.3769
      50    C15     16.698006   22.776927   22.163971 C.3        1 MOL1         0.1053
      51    H24     17.457721   22.114795   22.600834 H          1 MOL1         0.0783
      52    O13     15.586772   22.906113   23.059414 O.3        1 MOL1        -0.5519
      53    H25     15.205030   22.001153   23.175573 H          1 MOL1         0.3769
      54    C16     16.194059   22.133329   20.846034 C.3        1 MOL1         0.1018
      55    H26     15.262874   22.631820   20.545682 H          1 MOL1         0.0783
      56    C17     17.214356   22.237294   19.681456 C.3        1 MOL1         0.1043
      57    H27     18.037796   21.535020   19.865490 H          1 MOL1         0.0783
      58    O14     17.709664   23.598358   19.598216 O.3        1 MOL1        -0.3740
      59    C18     16.579523   21.892910   18.318465 C.3        1 MOL1         0.0138
      60    H28     15.756284   22.590552   18.114782 H          1 MOL1         0.0794
      61    H29     16.159948   20.880133   18.360367 H          1 MOL1         0.0794
      62    O15     17.565123   21.967844   17.287187 O.3        1 MOL1        -0.5486
      63    H30     18.031724   22.823014   17.422020 H          1 MOL1         0.3769
      64    C19     23.272421   22.592391   22.491614 C.3        1 MOL1         0.2972
      65    H31     24.270449   22.686930   22.937663 H          1 MOL1         0.0751
      66    O16     23.146489   21.378810   21.719805 O.3        1 MOL1        -0.3740
      67    C20     22.182460   22.606432   23.595351 C.3        1 MOL1         0.1003
      68    H32     22.248787   23.574120   24.108964 H          1 MOL1         0.0783
      69    O17     22.409908   21.555859   24.550635 O.3        1 MOL1        -0.5519
      70    H33     21.573689   21.020521   24.615857 H          1 MOL1         0.3769
      71    C21     20.773849   22.502604   22.962472 C.3        1 MOL1         0.1053
      72    H34     20.691968   21.515523   22.494929 H          1 MOL1         0.0783
      73    O18     19.768288   22.649736   23.973029 O.3        1 MOL1        -0.5519
      74    H35     19.723720   21.767201   24.427571 H          1 MOL1         0.3769
      75    C22     20.560313   23.555957   21.847603 C.3        1 MOL1         0.1018
      76    H36     20.390503   24.536591   22.310485 H          1 MOL1         0.0783
      77    C23     21.764663   23.635474   20.867757 C.3        1 MOL1         0.1043
      78    H37     21.757362   22.732799   20.242145 H          1 MOL1         0.0783
      79    O19     23.009756   23.704898   21.608827 O.3        1 MOL1        -0.3740
      80    C24     21.708369   24.856087   19.922477 C.3        1 MOL1         0.0138
      81    H38     20.830905   24.762129   19.269148 H          1 MOL1         0.0794
      82    H39     22.597421   24.844320   19.277835 H          1 MOL1         0.0794
      83    O20     21.645858   26.080554   20.659413 O.3        1 MOL1        -0.5486
      84    H40     22.434885   26.089493   21.245912 H          1 MOL1         0.3769
      85    C25     25.097878   17.747874   21.167629 C.3        1 MOL1         0.2972
      86    H41     25.825142   16.952725   20.961514 H          1 MOL1         0.0751
      87    O21     23.753861   17.235181   21.272018 O.3        1 MOL1        -0.3740
      88    C26     25.455678   18.467270   22.490932 C.3        1 MOL1         0.1003
      89    H42     26.454903   18.904001   22.364393 H          1 MOL1         0.0783
      90    O22     25.480961   17.552839   23.595305 O.3        1 MOL1        -0.5519
      91    H43     25.555791   18.128228   24.389759 H          1 MOL1         0.3769
      92    C27     24.468112   19.621511   22.782874 C.3        1 MOL1         0.1053
      93    H44     23.482769   19.182332   22.994287 H          1 MOL1         0.0783
      94    O23     24.937498   20.342302   23.928487 O.3        1 MOL1        -0.5519
      95    H45     24.146570   20.810325   24.294835 H          1 MOL1         0.3769
      96    C28     24.327910   20.568396   21.556432 C.3        1 MOL1         0.1018
      97    H46     25.227337   21.191749   21.465555 H          1 MOL1         0.0783
      98    C29     24.128907   19.787211   20.228719 C.3        1 MOL1         0.1043
      99    H47     23.119427   19.355467   20.216589 H          1 MOL1         0.0783
     100    O24     25.126997   18.741658   20.122269 O.3        1 MOL1        -0.3740
     101    C30     24.280726   20.700970   18.994743 C.3        1 MOL1         0.0138
     102    H48     25.291759   21.129565   18.983403 H          1 MOL1         0.0794
     103    H49     23.566436   21.531538   19.070092 H          1 MOL1         0.0794
     104    O25     24.039913   19.956056   17.799174 O.3        1 MOL1        -0.5486
     105    H50     24.636062   19.175665   17.842693 H          1 MOL1         0.3769
     106    C31     21.362742   13.907680   20.685743 C.3        1 MOL1         0.2972
     107    H51     20.935226   12.929989   20.429187 H          1 MOL1         0.0751
     108    O26     20.328214   14.863835   20.995070 O.3        1 MOL1        -0.3740
     109    C32     22.362573   13.784767   21.870137 C.3        1 MOL1         0.1003
     110    H52     23.169409   13.119344   21.537480 H          1 MOL1         0.0783
     111    O27     21.737082   13.201582   23.023651 O.3        1 MOL1        -0.5519
     112    H53     21.137420   13.894338   23.397640 H          1 MOL1         0.3769
     113    C33     22.998353   15.161234   22.203572 C.3        1 MOL1         0.1053
     114    H54     22.216625   15.809382   22.623056 H          1 MOL1         0.0783
     115    O28     24.062842   15.001609   23.149626 O.3        1 MOL1        -0.5519
     116    H55     24.435592   15.902671   23.315054 H          1 MOL1         0.3769
     117    C34     23.565908   15.847199   20.934584 C.3        1 MOL1         0.1018
     118    H56     24.509630   15.356205   20.663146 H          1 MOL1         0.0783
     119    C35     22.596804   15.786475   19.723560 C.3        1 MOL1         0.1043
     120    H57     21.761658   16.473734   19.910846 H          1 MOL1         0.0783
     121    O29     22.098756   14.433895   19.561177 O.3        1 MOL1        -0.3740
     122    C36     23.259105   16.208820   18.393923 C.3        1 MOL1         0.0138
     123    H58     23.591401   17.251167   18.477186 H          1 MOL1         0.0794
     124    H59     22.505537   16.168656   17.596163 H          1 MOL1         0.0794
     125    O30     24.366392   15.360528   18.074988 O.3        1 MOL1        -0.5486
     126    H60     24.014839   14.442488   18.072641 H          1 MOL1         0.3769
     127    C1      19.617005   18.992376   24.060535 C.2        1 MOL1         0.6021
     128    O1      20.072989   19.964933   24.633598 O.co2      1 MOL1        -0.6904
     129    O2      19.441453   17.908787   24.587282 O.co2      1 MOL1        -0.6904
     130    C2      19.258120   19.135961   22.583461 C.3        1 MOL1        -0.2102
     131    H1      18.928185   20.164837   22.404161 H          1 MOL1         0.0687
     132    H2      18.393730   18.499106   22.375611 H          1 MOL1         0.0687
     133    C3      20.429747   18.770504   21.637996 C.3        1 MOL1        -0.1974
     134    H3      21.294250   19.406134   21.863397 H          1 MOL1         0.0689
     135    H4      20.749629   17.737208   21.825173 H          1 MOL1         0.0689
     136    C4      20.039299   18.933315   20.155953 C.3        1 MOL1        -0.2987
     137    H5      19.753900   19.970348   19.940088 H          1 MOL1         0.0700
     138    H6      20.880219   18.673814   19.501124 H          1 MOL1         0.0700
     139    H7      19.194356   18.281071   19.899665 H          1 MOL1         0.0700
@<TRIPOS>BOND
    1     1     2    1
    2     1     3    1
    3     1     4    1
    4     4     5    1
    5     4     6    1
    6     6     7    1
    7     4     8    1
    8     8     9    1
    9     8    10    1
   10    10    11    1
   11     8    12    1
   12    12    13    1
   13    12    14    1
   14    14    15    1
   15     1    16    1
   16    14    16    1
   17    14    17    1
   18    17    18    1
   19    17    19    1
   20    17    20    1
   21    20    21    1
   22    22    23    1
   23    22    24    1
   24    22    25    1
   25    25    26    1
   26    25    27    1
   27    27    28    1
   28    25    29    1
   29    29    30    1
   30    29    31    1
   31    31    32    1
   32     3    33    1
   33    29    33    1
   34    33    34    1
   35    33    35    1
   36    35    36    1
   37    22    37    1
   38    35    37    1
   39    35    38    1
   40    38    39    1
   41    38    40    1
   42    38    41    1
   43    41    42    1
   44    43    44    1
   45    43    45    1
   46    43    46    1
   47    46    47    1
   48    46    48    1
   49    48    49    1
   50    46    50    1
   51    50    51    1
   52    50    52    1
   53    52    53    1
   54    24    54    1
   55    50    54    1
   56    54    55    1
   57    54    56    1
   58    56    57    1
   59    43    58    1
   60    56    58    1
   61    56    59    1
   62    59    60    1
   63    59    61    1
   64    59    62    1
   65    62    63    1
   66    64    65    1
   67    64    66    1
   68    64    67    1
   69    67    68    1
   70    67    69    1
   71    69    70    1
   72    67    71    1
   73    71    72    1
   74    71    73    1
   75    73    74    1
   76    45    75    1
   77    71    75    1
   78    75    76    1
   79    75    77    1
   80    77    78    1
   81    64    79    1
   82    77    79    1
   83    77    80    1
   84    80    81    1
   85    80    82    1
   86    80    83    1
   87    83    84    1
   88    85    86    1
   89    85    87    1
   90    85    88    1
   91    88    89    1
   92    88    90    1
   93    90    91    1
   94    88    92    1
   95    92    93    1
   96    92    94    1
   97    94    95    1
   98    66    96    1
   99    92    96    1
  100    96    97    1
  101    96    98    1
  102    98    99    1
  103    85   100    1
  104    98   100    1
  105    98   101    1
  106   101   102    1
  107   101   103    1
  108   101   104    1
  109   104   105    1
  110   106   107    1
  111    12   108    1
  112   106   108    1
  113   106   109    1
  114   109   110    1
  115   109   111    1
  116   111   112    1
  117   109   113    1
  118   113   114    1
  119   113   115    1
  120   115   116    1
  121    87   117    1
  122   113   117    1
  123   117   118    1
  124   117   119    1
  125   119   120    1
  126   106   121    1
  127   119   121    1
  128   119   122    1
  129   122   123    1
  130   122   124    1
  131   122   125    1
  132   125   126    1
  133   127   128    1
  134   127   129    2
  135   127   130    1
  136   130   131    1
  137   130   132    1
  138   130   133    1
  139   133   134    1
  140   133   135    1
  141   133   136    1
  142   136   137    1
  143   136   138    1
  144   136   139    1
@<TRIPOS>SUBSTRUCTURE
       1 MOL1            1 RESIDUE      1      MOL     
       2 MOL1          139 RESIDUE      1      MOL     
@<SCITEGIC>MOL_PROPERTY
VM2 Rank
SciTegic.value.IntegerValue
6

@<SCITEGIC>MOL_PROPERTY
Conf_Id
SciTegic.value.IntegerValue
19068

@<SCITEGIC>MOL_PROPERTY
Probability
SciTegic.value.DoubleValue
1.70

@<SCITEGIC>MOL_PROPERTY
Sum Probability
SciTegic.value.DoubleValue
12.78

@<SCITEGIC>MOL_PROPERTY
Delta G
SciTegic.value.DoubleValue
0.254

@<SCITEGIC>MOL_PROPERTY
G
SciTegic.value.DoubleValue
473.272

@<SCITEGIC>MOL_PROPERTY
E
SciTegic.value.DoubleValue
294.041

@<SCITEGIC>MOL_PROPERTY
-TS
SciTegic.value.DoubleValue
179.231

@<SCITEGIC>MOL_PROPERTY
U+W
SciTegic.value.DoubleValue
171.530

@<SCITEGIC>MOL_PROPERTY
U
SciTegic.value.DoubleValue
238.767

@<SCITEGIC>MOL_PROPERTY
W
SciTegic.value.DoubleValue
-67.237

@<SCITEGIC>MOL_PROPERTY
W(PB)
SciTegic.value.DoubleValue
-73.239

@<SCITEGIC>MOL_PROPERTY
W(SA)
SciTegic.value.DoubleValue
6.002

@<SCITEGIC>MOL_PROPERTY
Valence
SciTegic.value.DoubleValue
150.455

@<SCITEGIC>MOL_PROPERTY
Coulomb
SciTegic.value.DoubleValue
106.782

@<SCITEGIC>MOL_PROPERTY
VdW
SciTegic.value.DoubleValue
-18.471

@<SCITEGIC>MOL_PROPERTY
VdW6
SciTegic.value.DoubleValue
-174.594

@<SCITEGIC>MOL_PROPERTY
VdW12
SciTegic.value.DoubleValue
156.123

@<SCITEGIC>MOL_PROPERTY
Bond
SciTegic.value.DoubleValue
5.057

@<SCITEGIC>MOL_PROPERTY
Angle
SciTegic.value.DoubleValue
11.913

@<SCITEGIC>MOL_PROPERTY
Pdih
SciTegic.value.DoubleValue
133.485

@<SCITEGIC>MOL_PROPERTY
Idih
SciTegic.value.DoubleValue
0.000

@<SCITEGIC>MOL_PROPERTY
Tether
SciTegic.value.DoubleValue
0.000

@<TRIPOS>MOLECULE
CD_guest-6_vm2_single.mol2 : vm2 host+ligand conformer 7
         139         144           2
SMALL
USER_CHARGES
 
@<TRIPOS>ATOM
       1    C1      16.425418   15.356028   22.143466 C.3        1 MOL1         0.2972
       2    H1      15.400120   15.252271   22.520148 H          1 MOL1         0.0751
       3    O1      16.610932   16.602472   21.437451 O.3        1 MOL1        -0.3740
       4    C2      17.440999   15.287128   23.312727 C.3        1 MOL1         0.1003
       5    H2      17.342367   14.297103   23.776124 H          1 MOL1         0.0783
       6    O2      17.146685   16.292964   24.296829 O.3        1 MOL1        -0.5519
       7    H3      17.982414   16.807757   24.455930 H          1 MOL1         0.3769
       8    C3      18.887597   15.415448   22.773509 C.3        1 MOL1         0.1053
       9    H4      19.000541   16.415785   22.344753 H          1 MOL1         0.0783
      10    O3      19.831419   15.240652   23.837518 O.3        1 MOL1        -0.5519
      11    H5      19.865582   16.119323   24.301590 H          1 MOL1         0.3769
      12    C4      19.168921   14.403940   21.634642 C.3        1 MOL1         0.1018
      13    H6      19.313261   13.406303   22.068855 H          1 MOL1         0.0783
      14    C5      18.026739   14.363742   20.580077 C.3        1 MOL1         0.1043
      15    H7      18.074421   15.287560   19.988382 H          1 MOL1         0.0783
      16    O4      16.737990   14.275711   21.237975 O.3        1 MOL1        -0.3740
      17    C6      18.137260   13.176851   19.597431 C.3        1 MOL1         0.0138
      18    H8      19.052176   13.290207   19.001050 H          1 MOL1         0.0794
      19    H9      17.288004   13.214891   18.902025 H          1 MOL1         0.0794
      20    O5      18.153439   11.927062   20.293199 O.3        1 MOL1        -0.5486
      21    H10     17.329385   11.899676   20.828747 H          1 MOL1         0.3769
      22    C7      14.690903   20.254608   20.893233 C.3        1 MOL1         0.2972
      23    H11     13.973803   21.054075   20.669376 H          1 MOL1         0.0751
      24    O6      16.017783   20.771189   21.120039 O.3        1 MOL1        -0.3740
      25    C8      14.238658   19.477703   22.153899 C.3        1 MOL1         0.1003
      26    H12     13.251137   19.049597   21.937711 H          1 MOL1         0.0783
      27    O7      14.136359   20.348325   23.289334 O.3        1 MOL1        -0.5519
      28    H13     13.998451   19.743428   24.052736 H          1 MOL1         0.3769
      29    C9      15.203119   18.310347   22.469202 C.3        1 MOL1         0.1053
      30    H14     16.165798   18.743229   22.772147 H          1 MOL1         0.0783
      31    O8      14.657065   17.542497   23.548316 O.3        1 MOL1        -0.5519
      32    H15     15.420497   17.054751   23.945896 H          1 MOL1         0.3769
      33    C10     15.440631   17.416533   21.217748 C.3        1 MOL1         0.1018
      34    H16     14.554473   16.795508   21.031463 H          1 MOL1         0.0783
      35    C11     15.740669   18.259828   19.947525 C.3        1 MOL1         0.1043
      36    H17     16.743393   18.696820   20.049927 H          1 MOL1         0.0783
      37    O9      14.756228   19.314429   19.802068 O.3        1 MOL1        -0.3740
      38    C12     15.722672   17.423052   18.649137 C.3        1 MOL1         0.0138
      39    H18     16.472669   16.624840   18.725527 H          1 MOL1         0.0794
      40    H19     16.013599   18.069121   17.810033 H          1 MOL1         0.0794
      41    O10     14.427052   16.862405   18.416958 O.3        1 MOL1        -0.5486
      42    H20     13.795770   17.615375   18.452130 H          1 MOL1         0.3769
      43    C13     18.441747   24.102616   20.764543 C.3        1 MOL1         0.2972
      44    H21     18.885493   25.085926   20.562797 H          1 MOL1         0.0751
      45    O11     19.455959   23.129713   21.091003 O.3        1 MOL1        -0.3740
      46    C14     17.380564   24.192131   21.897570 C.3        1 MOL1         0.1003
      47    H22     16.594975   24.872183   21.544285 H          1 MOL1         0.0783
      48    O12     17.943517   24.733999   23.102003 O.3        1 MOL1        -0.5519
      49    H23     18.521360   24.027334   23.484125 H          1 MOL1         0.3769
      50    C15     16.723880   22.808254   22.148306 C.3        1 MOL1         0.1053
      51    H24     17.480053   22.144804   22.589329 H          1 MOL1         0.0783
      52    O13     15.606446   22.935218   23.036817 O.3        1 MOL1        -0.5519
      53    H25     15.223278   22.029966   23.145592 H          1 MOL1         0.3769
      54    C16     16.227508   22.165868   20.827829 C.3        1 MOL1         0.1018
      55    H26     15.301688   22.668810   20.518369 H          1 MOL1         0.0783
      56    C17     17.259413   22.259492   19.672890 C.3        1 MOL1         0.1043
      57    H27     18.078510   21.556092   19.870891 H          1 MOL1         0.0783
      58    O14     17.759300   23.618888   19.588615 O.3        1 MOL1        -0.3740
      59    C18     16.640900   21.909834   18.303269 C.3        1 MOL1         0.0138
      60    H28     15.839710   22.624940   18.073745 H          1 MOL1         0.0794
      61    H29     16.194118   20.908822   18.349242 H          1 MOL1         0.0794
      62    O15     17.647920   21.943466   17.290481 O.3        1 MOL1        -0.5486
      63    H30     18.125373   22.794628   17.412305 H          1 MOL1         0.3769
      64    C19     23.291092   22.599001   22.529674 C.3        1 MOL1         0.2972
      65    H31     24.285364   22.687617   22.985233 H          1 MOL1         0.0751
      66    O16     23.167155   21.388926   21.752015 O.3        1 MOL1        -0.3740
      67    C20     22.191341   22.613160   23.623576 C.3        1 MOL1         0.1003
      68    H32     22.257295   23.578283   24.142036 H          1 MOL1         0.0783
      69    O17     22.405126   21.557182   24.576058 O.3        1 MOL1        -0.5519
      70    H33     21.568301   21.020922   24.624708 H          1 MOL1         0.3769
      71    C21     20.788169   22.517971   22.977647 C.3        1 MOL1         0.1053
      72    H34     20.706126   21.532550   22.506417 H          1 MOL1         0.0783
      73    O18     19.774002   22.665892   23.979405 O.3        1 MOL1        -0.5519
      74    H35     19.720063   21.780683   24.427674 H          1 MOL1         0.3769
      75    C22     20.588863   23.575313   21.864071 C.3        1 MOL1         0.1018
      76    H36     20.416591   24.555085   22.327804 H          1 MOL1         0.0783
      77    C23     21.802773   23.654507   20.896054 C.3        1 MOL1         0.1043
      78    H37     21.798055   22.754511   20.266597 H          1 MOL1         0.0783
      79    O19     23.041091   23.716072   21.649015 O.3        1 MOL1        -0.3740
      80    C24     21.759938   24.879190   19.955359 C.3        1 MOL1         0.0138
      81    H38     20.888417   24.791167   19.293322 H          1 MOL1         0.0794
      82    H39     22.655047   24.866785   19.319163 H          1 MOL1         0.0794
      83    O20     21.694901   26.100845   20.696706 O.3        1 MOL1        -0.5486
      84    H40     22.478248   26.104426   21.290831 H          1 MOL1         0.3769
      85    C25     25.118806   17.757917   21.195515 C.3        1 MOL1         0.2972
      86    H41     25.847641   16.963761   20.991124 H          1 MOL1         0.0751
      87    O21     23.773835   17.245107   21.285138 O.3        1 MOL1        -0.3740
      88    C26     25.464887   18.469387   22.526240 C.3        1 MOL1         0.1003
      89    H42     26.465483   18.906218   22.411428 H          1 MOL1         0.0783
      90    O22     25.479478   17.548597   23.625507 O.3        1 MOL1        -0.5519
      91    H43     25.547292   18.119388   24.423907 H          1 MOL1         0.3769
      92    C27     24.475308   19.622523   22.815786 C.3        1 MOL1         0.1053
      93    H44     23.487483   19.183020   23.014823 H          1 MOL1         0.0783
      94    O23     24.934127   20.336024   23.970235 O.3        1 MOL1        -0.5519
      95    H45     24.140635   20.804285   24.330680 H          1 MOL1         0.3769
      96    C28     24.347929   20.576677   21.593685 C.3        1 MOL1         0.1018
      97    H46     25.249580   21.198367   21.514074 H          1 MOL1         0.0783
      98    C29     24.158850   19.803202   20.260027 C.3        1 MOL1         0.1043
      99    H47     23.149171   19.372252   20.237115 H          1 MOL1         0.0783
     100    O24     25.157189   18.757631   20.156076 O.3        1 MOL1        -0.3740
     101    C30     24.321516   20.723643   19.032420 C.3        1 MOL1         0.0138
     102    H48     25.333211   21.150831   19.031286 H          1 MOL1         0.0794
     103    H49     23.607862   21.554818   19.106875 H          1 MOL1         0.0794
     104    O25     24.088831   19.985759   17.830889 O.3        1 MOL1        -0.5486
     105    H50     24.684464   19.204975   17.874017 H          1 MOL1         0.3769
     106    C31     21.384415   13.925125   20.658186 C.3        1 MOL1         0.2972
     107    H51     20.957363   12.949486   20.393163 H          1 MOL1         0.0751
     108    O26     20.348726   14.883003   20.958583 O.3        1 MOL1        -0.3740
     109    C32     22.370055   13.795262   21.853698 C.3        1 MOL1         0.1003
     110    H52     23.179284   13.129400   21.527800 H          1 MOL1         0.0783
     111    O27     21.730087   13.208917   22.997623 O.3        1 MOL1        -0.5519
     112    H53     21.128472   13.901898   23.368045 H          1 MOL1         0.3769
     113    C33     23.004811   15.168988   22.199875 C.3        1 MOL1         0.1053
     114    H54     22.219597   15.817254   22.612595 H          1 MOL1         0.0783
     115    O28     24.057718   15.003450   23.157789 O.3        1 MOL1        -0.5519
     116    H55     24.431460   15.902851   23.329863 H          1 MOL1         0.3769
     117    C34     23.588805   15.858577   20.940378 C.3        1 MOL1         0.1018
     118    H56     24.535323   15.367451   20.679099 H          1 MOL1         0.0783
     119    C35     22.634818   15.803733   19.717151 C.3        1 MOL1         0.1043
     120    H57     21.799205   16.492515   19.896315 H          1 MOL1         0.0783
     121    O29     22.135122   14.453115   19.544246 O.3        1 MOL1        -0.3740
     122    C36     23.314707   16.228475   18.397184 C.3        1 MOL1         0.0138
     123    H58     23.648471   17.269751   18.487713 H          1 MOL1         0.0794
     124    H59     22.571124   16.192501   17.589923 H          1 MOL1         0.0794
     125    O30     24.423840   15.378434   18.089579 O.3        1 MOL1        -0.5486
     126    H60     24.070139   14.461260   18.079976 H          1 MOL1         0.3769
     127    C1      19.609561   19.002727   24.031561 C.2        1 MOL1         0.6021
     128    O1      20.062670   19.972030   24.612333 O.co2      1 MOL1        -0.6904
     129    O2      19.427501   17.917462   24.552641 O.co2      1 MOL1        -0.6904
     130    C2      19.262462   19.152276   22.552104 C.3        1 MOL1        -0.2102
     131    H1      18.937188   20.182757   22.373169 H          1 MOL1         0.0687
     132    H2      18.397742   18.518341   22.336750 H          1 MOL1         0.0687
     133    C3      20.439978   18.785873   21.614236 C.3        1 MOL1        -0.1974
     134    H3      21.298943   19.430021   21.836696 H          1 MOL1         0.0689
     135    H4      20.766778   17.756820   21.812906 H          1 MOL1         0.0689
     136    C4      20.054030   18.930098   20.129032 C.3        1 MOL1        -0.2987
     137    H5      19.755538   19.961060   19.902407 H          1 MOL1         0.0700
     138    H6      20.901984   18.676608   19.480856 H          1 MOL1         0.0700
     139    H7      19.219994   18.263180   19.875700 H          1 MOL1         0.0700
@<TRIPOS>BOND
    1     1     2    1
    2     1     3    1
    3     1     4    1
    4     4     5    1
    5     4     6    1
    6     6     7    1
    7     4     8    1
    8     8     9    1
    9     8    10    1
   10    10    11    1
   11     8    12    1
   12    12    13    1
   13    12    14    1
   14    14    15    1
   15     1    16    1
   16    14    16    1
   17    14    17    1
   18    17    18    1
   19    17    19    1
   20    17    20    1
   21    20    21    1
   22    22    23    1
   23    22    24    1
   24    22    25    1
   25    25    26    1
   26    25    27    1
   27    27    28    1
   28    25    29    1
   29    29    30    1
   30    29    31    1
   31    31    32    1
   32     3    33    1
   33    29    33    1
   34    33    34    1
   35    33    35    1
   36    35    36    1
   37    22    37    1
   38    35    37    1
   39    35    38    1
   40    38    39    1
   41    38    40    1
   42    38    41    1
   43    41    42    1
   44    43    44    1
   45    43    45    1
   46    43    46    1
   47    46    47    1
   48    46    48    1
   49    48    49    1
   50    46    50    1
   51    50    51    1
   52    50    52    1
   53    52    53    1
   54    24    54    1
   55    50    54    1
   56    54    55    1
   57    54    56    1
   58    56    57    1
   59    43    58    1
   60    56    58    1
   61    56    59    1
   62    59    60    1
   63    59    61    1
   64    59    62    1
   65    62    63    1
   66    64    65    1
   67    64    66    1
   68    64    67    1
   69    67    68    1
   70    67    69    1
   71    69    70    1
   72    67    71    1
   73    71    72    1
   74    71    73    1
   75    73    74    1
   76    45    75    1
   77    71    75    1
   78    75    76    1
   79    75    77    1
   80    77    78    1
   81    64    79    1
   82    77    79    1
   83    77    80    1
   84    80    81    1
   85    80    82    1
   86    80    83    1
   87    83    84    1
   88    85    86    1
   89    85    87    1
   90    85    88    1
   91    88    89    1
   92    88    90    1
   93    90    91    1
   94    88    92    1
   95    92    93    1
   96    92    94    1
   97    94    95    1
   98    66    96    1
   99    92    96    1
  100    96    97    1
  101    96    98    1
  102    98    99    1
  103    85   100    1
  104    98   100    1
  105    98   101    1
  106   101   102    1
  107   101   103    1
  108   101   104    1
  109   104   105    1
  110   106   107    1
  111    12   108    1
  112   106   108    1
  113   106   109    1
  114   109   110    1
  115   109   111    1
  116   111   112    1
  117   109   113    1
  118   113   114    1
  119   113   115    1
  120   115   116    1
  121    87   117    1
  122   113   117    1
  123   117   118    1
  124   117   119    1
  125   119   120    1
  126   106   121    1
  127   119   121    1
  128   119   122    1
  129   122   123    1
  130   122   124    1
  131   122   125    1
  132   125   126    1
  133   127   128    1
  134   127   129    2
  135   127   130    1
  136   130   131    1
  137   130   132    1
  138   130   133    1
  139   133   134    1
  140   133   135    1
  141   133   136    1
  142   136   137    1
  143   136   138    1
  144   136   139    1
@<TRIPOS>SUBSTRUCTURE
       1 MOL1            1 RESIDUE      1      MOL     
       2 MOL1          139 RESIDUE      1      MOL     
@<SCITEGIC>MOL_PROPERTY
VM2 Rank
SciTegic.value.IntegerValue
7

@<SCITEGIC>MOL_PROPERTY
Conf_Id
SciTegic.value.IntegerValue
13965

@<SCITEGIC>MOL_PROPERTY
Probability
SciTegic.value.DoubleValue
1.52

@<SCITEGIC>MOL_PROPERTY
Sum Probability
SciTegic.value.DoubleValue
14.30

@<SCITEGIC>MOL_PROPERTY
Delta G
SciTegic.value.DoubleValue
0.320

@<SCITEGIC>MOL_PROPERTY
G
SciTegic.value.DoubleValue
473.338

@<SCITEGIC>MOL_PROPERTY
E
SciTegic.value.DoubleValue
293.954

@<SCITEGIC>MOL_PROPERTY
-TS
SciTegic.value.DoubleValue
179.383

@<SCITEGIC>MOL_PROPERTY
U+W
SciTegic.value.DoubleValue
171.443

@<SCITEGIC>MOL_PROPERTY
U
SciTegic.value.DoubleValue
237.217

@<SCITEGIC>MOL_PROPERTY
W
SciTegic.value.DoubleValue
-65.774

@<SCITEGIC>MOL_PROPERTY
W(PB)
SciTegic.value.DoubleValue
-71.793

@<SCITEGIC>MOL_PROPERTY
W(SA)
SciTegic.value.DoubleValue
6.019

@<SCITEGIC>MOL_PROPERTY
Valence
SciTegic.value.DoubleValue
150.187

@<SCITEGIC>MOL_PROPERTY
Coulomb
SciTegic.value.DoubleValue
105.154

@<SCITEGIC>MOL_PROPERTY
VdW
SciTegic.value.DoubleValue
-18.123

@<SCITEGIC>MOL_PROPERTY
VdW6
SciTegic.value.DoubleValue
-174.746

@<SCITEGIC>MOL_PROPERTY
VdW12
SciTegic.value.DoubleValue
156.623

@<SCITEGIC>MOL_PROPERTY
Bond
SciTegic.value.DoubleValue
5.077

@<SCITEGIC>MOL_PROPERTY
Angle
SciTegic.value.DoubleValue
12.030

@<SCITEGIC>MOL_PROPERTY
Pdih
SciTegic.value.DoubleValue
133.079

@<SCITEGIC>MOL_PROPERTY
Idih
SciTegic.value.DoubleValue
0.000

@<SCITEGIC>MOL_PROPERTY
Tether
SciTegic.value.DoubleValue
0.000

@<TRIPOS>MOLECULE
CD_guest-6_vm2_single.mol2 : vm2 host+ligand conformer 8
         139         144           2
SMALL
USER_CHARGES
 
@<TRIPOS>ATOM
       1    C1      16.425339   15.343713   22.119033 C.3        1 MOL1         0.2972
       2    H1      15.398468   15.241025   22.491665 H          1 MOL1         0.0751
       3    O1      16.611242   16.582777   21.401549 O.3        1 MOL1        -0.3740
       4    C2      17.436383   15.288012   23.293524 C.3        1 MOL1         0.1003
       5    H2      17.333988   14.303645   23.768022 H          1 MOL1         0.0783
       6    O2      17.143719   16.306512   24.265797 O.3        1 MOL1        -0.5519
       7    H3      17.971648   16.841767   24.400483 H          1 MOL1         0.3769
       8    C3      18.885026   15.408614   22.760653 C.3        1 MOL1         0.1053
       9    H4      19.000083   16.410536   22.333081 H          1 MOL1         0.0783
      10    O3      19.819488   15.225331   23.831467 O.3        1 MOL1        -0.5519
      11    H5      19.832723   16.092365   24.316824 H          1 MOL1         0.3769
      12    C4      19.171946   14.391328   21.628241 C.3        1 MOL1         0.1018
      13    H6      19.309858   13.396132   22.070230 H          1 MOL1         0.0783
      14    C5      18.035182   14.344443   20.568732 C.3        1 MOL1         0.1043
      15    H7      18.083972   15.265106   19.972254 H          1 MOL1         0.0783
      16    O4      16.744416   14.256999   21.223168 O.3        1 MOL1        -0.3740
      17    C6      18.152084   13.152237   19.593232 C.3        1 MOL1         0.0138
      18    H8      19.070371   13.263064   19.001529 H          1 MOL1         0.0794
      19    H9      17.306731   13.185775   18.892861 H          1 MOL1         0.0794
      20    O5      18.165435   11.906236   20.295851 O.3        1 MOL1        -0.5486
      21    H10     17.338891   11.881539   20.827707 H          1 MOL1         0.3769
      22    C7      14.697750   20.236826   20.840760 C.3        1 MOL1         0.2972
      23    H11     13.982366   21.035177   20.607275 H          1 MOL1         0.0751
      24    O6      16.021103   20.755281   21.085334 O.3        1 MOL1        -0.3740
      25    C8      14.234023   19.457336   22.095924 C.3        1 MOL1         0.1003
      26    H12     13.252692   19.022164   21.866132 H          1 MOL1         0.0783
      27    O7      14.108872   20.323161   23.232374 O.3        1 MOL1        -0.5519
      28    H13     13.973318   19.713193   23.992315 H          1 MOL1         0.3769
      29    C9      15.202612   18.296121   22.421808 C.3        1 MOL1         0.1053
      30    H14     16.166247   18.730528   22.723876 H          1 MOL1         0.0783
      31    O8      14.653048   17.532586   23.502485 O.3        1 MOL1        -0.5519
      32    H15     15.417459   17.054380   23.909668 H          1 MOL1         0.3769
      33    C10     15.443010   17.397588   21.175056 C.3        1 MOL1         0.1018
      34    H16     14.556696   16.777131   20.987751 H          1 MOL1         0.0783
      35    C11     15.749485   18.236456   19.903347 C.3        1 MOL1         0.1043
      36    H17     16.752194   18.670862   20.006878 H          1 MOL1         0.0783
      37    O9      14.772081   19.295342   19.750454 O.3        1 MOL1        -0.3740
      38    C12     15.732150   17.395107   18.607950 C.3        1 MOL1         0.0138
      39    H18     16.477765   16.593337   18.690141 H          1 MOL1         0.0794
      40    H19     16.029169   18.036503   17.767569 H          1 MOL1         0.0794
      41    O10     14.434510   16.840480   18.372834 O.3        1 MOL1        -0.5486
      42    H20     13.807480   17.597331   18.402562 H          1 MOL1         0.3769
      43    C13     18.412383   24.119094   20.806518 C.3        1 MOL1         0.2972
      44    H21     18.842395   25.112221   20.627866 H          1 MOL1         0.0751
      45    O11     19.439971   23.151307   21.107590 O.3        1 MOL1        -0.3740
      46    C14     17.354704   24.172213   21.943318 C.3        1 MOL1         0.1003
      47    H22     16.556928   24.845062   21.603669 H          1 MOL1         0.0783
      48    O12     17.916104   24.707623   23.151226 O.3        1 MOL1        -0.5519
      49    H23     18.489412   23.996867   23.532676 H          1 MOL1         0.3769
      50    C15     16.720354   22.773877   22.171057 C.3        1 MOL1         0.1053
      51    H24     17.489224   22.107514   22.585456 H          1 MOL1         0.0783
      52    O13     15.613975   22.869931   23.076714 O.3        1 MOL1        -0.5519
      53    H25     15.224156   21.963884   23.149239 H          1 MOL1         0.3769
      54    C16     16.214105   22.161892   20.839665 C.3        1 MOL1         0.1018
      55    H26     15.278937   22.664618   20.560077 H          1 MOL1         0.0783
      56    C17     17.231906   22.300183   19.675218 C.3        1 MOL1         0.1043
      57    H27     18.060322   21.601486   19.851215 H          1 MOL1         0.0783
      58    O14     17.734450   23.659574   19.619061 O.3        1 MOL1        -0.3740
      59    C18     16.622218   21.970155   18.294763 C.3        1 MOL1         0.0138
      60    H28     16.275893   20.928548   18.293990 H          1 MOL1         0.0794
      61    H29     17.409043   22.054109   17.533346 H          1 MOL1         0.0794
      62    O15     15.538030   22.851726   17.986629 O.3        1 MOL1        -0.5486
      63    H30     15.898153   23.763338   18.063301 H          1 MOL1         0.3769
      64    C19     23.267965   22.582310   22.548169 C.3        1 MOL1         0.2972
      65    H31     24.264687   22.661483   22.999999 H          1 MOL1         0.0751
      66    O16     23.124410   21.369774   21.778248 O.3        1 MOL1        -0.3740
      67    C20     22.173885   22.606418   23.644106 C.3        1 MOL1         0.1003
      68    H32     22.247141   23.571549   24.161536 H          1 MOL1         0.0783
      69    O17     22.393923   21.550172   24.594546 O.3        1 MOL1        -0.5519
      70    H33     21.544520   21.039635   24.674448 H          1 MOL1         0.3769
      71    C21     20.768164   22.520167   22.997455 C.3        1 MOL1         0.1053
      72    H34     20.677061   21.540848   22.517879 H          1 MOL1         0.0783
      73    O18     19.755660   22.656822   24.001364 O.3        1 MOL1        -0.5519
      74    H35     19.683839   21.758668   24.422129 H          1 MOL1         0.3769
      75    C22     20.575863   23.583909   21.885196 C.3        1 MOL1         0.1018
      76    H36     20.416354   24.567198   22.346671 H          1 MOL1         0.0783
      77    C23     21.788380   23.647996   20.914429 C.3        1 MOL1         0.1043
      78    H37     21.772425   22.753677   20.277130 H          1 MOL1         0.0783
      79    O19     23.022795   23.702822   21.672975 O.3        1 MOL1        -0.3740
      80    C24     21.756871   24.890014   20.000290 C.3        1 MOL1         0.0138
      81    H38     21.814212   25.796685   20.617452 H          1 MOL1         0.0794
      82    H39     20.807405   24.914729   19.450083 H          1 MOL1         0.0794
      83    O20     22.846617   24.840125   19.077472 O.3        1 MOL1        -0.5486
      84    H40     23.645353   24.624461   19.610613 H          1 MOL1         0.3769
      85    C25     25.094489   17.757447   21.158730 C.3        1 MOL1         0.2972
      86    H41     25.829248   16.975401   20.930171 H          1 MOL1         0.0751
      87    O21     23.763090   17.220441   21.296680 O.3        1 MOL1        -0.3740
      88    C26     25.474323   18.475744   22.477640 C.3        1 MOL1         0.1003
      89    H42     26.465282   18.925373   22.332705 H          1 MOL1         0.0783
      90    O22     25.531219   17.553819   23.574979 O.3        1 MOL1        -0.5519
      91    H43     25.619469   18.124205   24.371691 H          1 MOL1         0.3769
      92    C27     24.477795   19.614534   22.797991 C.3        1 MOL1         0.1053
      93    H44     23.503465   19.157006   23.015447 H          1 MOL1         0.0783
      94    O23     24.943094   20.328045   23.949973 O.3        1 MOL1        -0.5519
      95    H45     24.150774   20.792899   24.317516 H          1 MOL1         0.3769
      96    C28     24.308602   20.571586   21.583568 C.3        1 MOL1         0.1018
      97    H46     25.201072   21.202896   21.480605 H          1 MOL1         0.0783
      98    C29     24.083535   19.795702   20.256940 C.3        1 MOL1         0.1043
      99    H47     23.078598   19.352930   20.279547 H          1 MOL1         0.0783
     100    O24     25.076915   18.750396   20.112622 O.3        1 MOL1        -0.3740
     101    C30     24.175934   20.701929   19.008771 C.3        1 MOL1         0.0138
     102    H48     23.423671   21.498330   19.084314 H          1 MOL1         0.0794
     103    H49     23.934096   20.103740   18.120262 H          1 MOL1         0.0794
     104    O25     25.483433   21.269170   18.882836 O.3        1 MOL1        -0.5486
     105    H50     26.110474   20.512501   18.912680 H          1 MOL1         0.3769
     106    C31     21.395153   13.891503   20.684223 C.3        1 MOL1         0.2972
     107    H51     20.966506   12.913656   20.429949 H          1 MOL1         0.0751
     108    O26     20.359813   14.859419   20.956525 O.3        1 MOL1        -0.3740
     109    C32     22.368340   13.775397   21.891121 C.3        1 MOL1         0.1003
     110    H52     23.183946   13.110426   21.579548 H          1 MOL1         0.0783
     111    O27     21.719805   13.195265   23.033081 O.3        1 MOL1        -0.5519
     112    H53     21.113216   13.889003   23.393620 H          1 MOL1         0.3769
     113    C33     22.992698   15.155825   22.228266 C.3        1 MOL1         0.1053
     114    H54     22.198500   15.807033   22.617384 H          1 MOL1         0.0783
     115    O28     24.030409   15.012055   23.206300 O.3        1 MOL1        -0.5519
     116    H55     24.419813   15.910513   23.344653 H          1 MOL1         0.3769
     117    C34     23.596491   15.827232   20.968606 C.3        1 MOL1         0.1018
     118    H56     24.552800   15.338621   20.740078 H          1 MOL1         0.0783
     119    C35     22.672262   15.744987   19.723359 C.3        1 MOL1         0.1043
     120    H57     21.838906   16.445749   19.862887 H          1 MOL1         0.0783
     121    O29     22.163252   14.395246   19.571491 O.3        1 MOL1        -0.3740
     122    C36     23.390790   16.123012   18.409058 C.3        1 MOL1         0.0138
     123    H58     23.741938   17.160802   18.476061 H          1 MOL1         0.0794
     124    H59     22.666127   16.075379   17.585347 H          1 MOL1         0.0794
     125    O30     24.490920   15.244662   18.152658 O.3        1 MOL1        -0.5486
     126    H60     24.120520   14.333975   18.162686 H          1 MOL1         0.3769
     127    C1      19.955393   18.884182   24.043426 C.2        1 MOL1         0.6021
     128    O1      19.467276   17.889221   24.547007 O.co2      1 MOL1        -0.6904
     129    O2      20.084963   19.948293   24.620648 O.co2      1 MOL1        -0.6904
     130    C2      20.421655   18.796879   22.591935 C.3        1 MOL1        -0.2102
     131    H1      20.766764   17.775605   22.397989 H          1 MOL1         0.0687
     132    H2      21.296912   19.441775   22.474167 H          1 MOL1         0.0687
     133    C3      19.321688   19.198116   21.577338 C.3        1 MOL1        -0.1974
     134    H3      18.453773   18.539791   21.701535 H          1 MOL1         0.0689
     135    H4      18.970376   20.215555   21.793412 H          1 MOL1         0.0689
     136    C4      19.828972   19.122722   20.123786 C.3        1 MOL1        -0.2987
     137    H5      19.034350   19.400819   19.420698 H          1 MOL1         0.0700
     138    H6      20.673008   19.807330   19.970413 H          1 MOL1         0.0700
     139    H7      20.157426   18.105118   19.878551 H          1 MOL1         0.0700
@<TRIPOS>BOND
    1     1     2    1
    2     1     3    1
    3     1     4    1
    4     4     5    1
    5     4     6    1
    6     6     7    1
    7     4     8    1
    8     8     9    1
    9     8    10    1
   10    10    11    1
   11     8    12    1
   12    12    13    1
   13    12    14    1
   14    14    15    1
   15     1    16    1
   16    14    16    1
   17    14    17    1
   18    17    18    1
   19    17    19    1
   20    17    20    1
   21    20    21    1
   22    22    23    1
   23    22    24    1
   24    22    25    1
   25    25    26    1
   26    25    27    1
   27    27    28    1
   28    25    29    1
   29    29    30    1
   30    29    31    1
   31    31    32    1
   32     3    33    1
   33    29    33    1
   34    33    34    1
   35    33    35    1
   36    35    36    1
   37    22    37    1
   38    35    37    1
   39    35    38    1
   40    38    39    1
   41    38    40    1
   42    38    41    1
   43    41    42    1
   44    43    44    1
   45    43    45    1
   46    43    46    1
   47    46    47    1
   48    46    48    1
   49    48    49    1
   50    46    50    1
   51    50    51    1
   52    50    52    1
   53    52    53    1
   54    24    54    1
   55    50    54    1
   56    54    55    1
   57    54    56    1
   58    56    57    1
   59    43    58    1
   60    56    58    1
   61    56    59    1
   62    59    60    1
   63    59    61    1
   64    59    62    1
   65    62    63    1
   66    64    65    1
   67    64    66    1
   68    64    67    1
   69    67    68    1
   70    67    69    1
   71    69    70    1
   72    67    71    1
   73    71    72    1
   74    71    73    1
   75    73    74    1
   76    45    75    1
   77    71    75    1
   78    75    76    1
   79    75    77    1
   80    77    78    1
   81    64    79    1
   82    77    79    1
   83    77    80    1
   84    80    81    1
   85    80    82    1
   86    80    83    1
   87    83    84    1
   88    85    86    1
   89    85    87    1
   90    85    88    1
   91    88    89    1
   92    88    90    1
   93    90    91    1
   94    88    92    1
   95    92    93    1
   96    92    94    1
   97    94    95    1
   98    66    96    1
   99    92    96    1
  100    96    97    1
  101    96    98    1
  102    98    99    1
  103    85   100    1
  104    98   100    1
  105    98   101    1
  106   101   102    1
  107   101   103    1
  108   101   104    1
  109   104   105    1
  110   106   107    1
  111    12   108    1
  112   106   108    1
  113   106   109    1
  114   109   110    1
  115   109   111    1
  116   111   112    1
  117   109   113    1
  118   113   114    1
  119   113   115    1
  120   115   116    1
  121    87   117    1
  122   113   117    1
  123   117   118    1
  124   117   119    1
  125   119   120    1
  126   106   121    1
  127   119   121    1
  128   119   122    1
  129   122   123    1
  130   122   124    1
  131   122   125    1
  132   125   126    1
  133   127   128    1
  134   127   129    2
  135   127   130    1
  136   130   131    1
  137   130   132    1
  138   130   133    1
  139   133   134    1
  140   133   135    1
  141   133   136    1
  142   136   137    1
  143   136   138    1
  144   136   139    1
@<TRIPOS>SUBSTRUCTURE
       1 MOL1            1 RESIDUE      1      MOL     
       2 MOL1          139 RESIDUE      1      MOL     
@<SCITEGIC>MOL_PROPERTY
VM2 Rank
SciTegic.value.IntegerValue
8

@<SCITEGIC>MOL_PROPERTY
Conf_Id
SciTegic.value.IntegerValue
23144

@<SCITEGIC>MOL_PROPERTY
Probability
SciTegic.value.DoubleValue
1.11

@<SCITEGIC>MOL_PROPERTY
Sum Probability
SciTegic.value.DoubleValue
15.41

@<SCITEGIC>MOL_PROPERTY
Delta G
SciTegic.value.DoubleValue
0.509

@<SCITEGIC>MOL_PROPERTY
G
SciTegic.value.DoubleValue
473.527

@<SCITEGIC>MOL_PROPERTY
E
SciTegic.value.DoubleValue
294.082

@<SCITEGIC>MOL_PROPERTY
-TS
SciTegic.value.DoubleValue
179.445

@<SCITEGIC>MOL_PROPERTY
U+W
SciTegic.value.DoubleValue
171.571

@<SCITEGIC>MOL_PROPERTY
U
SciTegic.value.DoubleValue
236.424

@<SCITEGIC>MOL_PROPERTY
W
SciTegic.value.DoubleValue
-64.854

@<SCITEGIC>MOL_PROPERTY
W(PB)
SciTegic.value.DoubleValue
-70.904

@<SCITEGIC>MOL_PROPERTY
W(SA)
SciTegic.value.DoubleValue
6.050

@<SCITEGIC>MOL_PROPERTY
Valence
SciTegic.value.DoubleValue
150.297

@<SCITEGIC>MOL_PROPERTY
Coulomb
SciTegic.value.DoubleValue
103.783

@<SCITEGIC>MOL_PROPERTY
VdW
SciTegic.value.DoubleValue
-17.655

@<SCITEGIC>MOL_PROPERTY
VdW6
SciTegic.value.DoubleValue
-174.652

@<SCITEGIC>MOL_PROPERTY
VdW12
SciTegic.value.DoubleValue
156.997

@<SCITEGIC>MOL_PROPERTY
Bond
SciTegic.value.DoubleValue
5.091

@<SCITEGIC>MOL_PROPERTY
Angle
SciTegic.value.DoubleValue
12.098

@<SCITEGIC>MOL_PROPERTY
Pdih
SciTegic.value.DoubleValue
133.108

@<SCITEGIC>MOL_PROPERTY
Idih
SciTegic.value.DoubleValue
0.000

@<SCITEGIC>MOL_PROPERTY
Tether
SciTegic.value.DoubleValue
0.000

