@<TRIPOS>MOLECULE
CD_guest-2_vm2_single.mol2 : vm2 host+ligand conformer 1
         149         154           2
SMALL
USER_CHARGES
 
@<TRIPOS>ATOM
       1    C1      16.271364   15.072759   20.562837 C.3        1 MOL1         0.2972
       2    H1      15.212588   14.990250   20.284980 H          1 MOL1         0.0751
       3    O1      16.650980   16.447640   20.795086 O.3        1 MOL1        -0.3740
       4    C2      16.593481   14.207703   21.810553 C.3        1 MOL1         0.1003
       5    H2      16.419490   13.161165   21.528026 H          1 MOL1         0.0783
       6    O2      15.750974   14.528530   22.926869 O.3        1 MOL1        -0.5519
       7    H3      15.977365   15.453749   23.198278 H          1 MOL1         0.3769
       8    C3      18.083930   14.352753   22.198406 C.3        1 MOL1         0.1053
       9    H4      18.244557   15.383842   22.543377 H          1 MOL1         0.0783
      10    O3      18.384385   13.436560   23.255874 O.3        1 MOL1        -0.5519
      11    H5      17.606554   13.476307   23.857649 H          1 MOL1         0.3769
      12    C4      19.023219   14.099142   20.988357 C.3        1 MOL1         0.1018
      13    H6      19.137796   13.018824   20.827893 H          1 MOL1         0.0783
      14    C5      18.525695   14.755506   19.670681 C.3        1 MOL1         0.1043
      15    H7      18.744200   15.827624   19.723331 H          1 MOL1         0.0783
      16    O4      17.099597   14.565770   19.497015 O.3        1 MOL1        -0.3740
      17    C6      19.235451   14.195232   18.418484 C.3        1 MOL1         0.0138
      18    H8      20.317687   14.352759   18.519174 H          1 MOL1         0.0794
      19    H9      18.899003   14.759796   17.538879 H          1 MOL1         0.0794
      20    O5      18.954321   12.803167   18.249155 O.3        1 MOL1        -0.5486
      21    H10     17.974504   12.720816   18.245823 H          1 MOL1         0.3769
      22    C7      15.085090   20.184442   21.753135 C.3        1 MOL1         0.2972
      23    H11     14.433661   21.009984   22.066227 H          1 MOL1         0.0751
      24    O6      16.299354   20.668451   21.145018 O.3        1 MOL1        -0.3740
      25    C8      15.450740   19.292809   22.969600 C.3        1 MOL1         0.1003
      26    H12     14.507768   18.916609   23.387319 H          1 MOL1         0.0783
      27    O7      16.151674   20.032981   23.982184 O.3        1 MOL1        -0.5519
      28    H13     15.912437   20.983295   23.863733 H          1 MOL1         0.3769
      29    C9      16.301985   18.079273   22.531605 C.3        1 MOL1         0.1053
      30    H14     17.273269   18.454834   22.189697 H          1 MOL1         0.0783
      31    O8      16.486108   17.217183   23.657860 O.3        1 MOL1        -0.5519
      32    H15     16.728691   17.824835   24.392811 H          1 MOL1         0.3769
      33    C10     15.643738   17.312685   21.357533 C.3        1 MOL1         0.1018
      34    H16     14.784313   16.747446   21.741757 H          1 MOL1         0.0783
      35    C11     15.178775   18.270142   20.225687 C.3        1 MOL1         0.1043
      36    H17     16.069378   18.672713   19.724869 H          1 MOL1         0.0783
      37    O9      14.401605   19.356803   20.787266 O.3        1 MOL1        -0.3740
      38    C12     14.311531   17.574793   19.152560 C.3        1 MOL1         0.0138
      39    H18     14.919784   16.821474   18.634411 H          1 MOL1         0.0794
      40    H19     14.008876   18.320262   18.405028 H          1 MOL1         0.0794
      41    O10     13.159102   16.960258   19.736322 O.3        1 MOL1        -0.5486
      42    H20     12.671134   17.675639   20.201791 H          1 MOL1         0.3769
      43    C13     18.463427   24.199043   20.947441 C.3        1 MOL1         0.2972
      44    H21     18.847130   25.211123   20.764228 H          1 MOL1         0.0751
      45    O11     19.507740   23.292644   21.349694 O.3        1 MOL1        -0.3740
      46    C14     17.374031   24.200135   22.048342 C.3        1 MOL1         0.1003
      47    H22     16.544082   24.819079   21.683183 H          1 MOL1         0.0783
      48    O12     17.866093   24.757658   23.277183 O.3        1 MOL1        -0.5519
      49    H23     18.687882   24.261505   23.522671 H          1 MOL1         0.3769
      50    C15     16.833927   22.767104   22.281958 C.3        1 MOL1         0.1053
      51    H24     17.643771   22.166276   22.718958 H          1 MOL1         0.0783
      52    O13     15.737585   22.840721   23.200146 O.3        1 MOL1        -0.5519
      53    H25     16.010553   23.512880   23.865971 H          1 MOL1         0.3769
      54    C16     16.400141   22.094147   20.945676 C.3        1 MOL1         0.1018
      55    H26     15.443549   22.516885   20.610675 H          1 MOL1         0.0783
      56    C17     17.450605   22.283296   19.818619 C.3        1 MOL1         0.1043
      57    H27     18.318303   21.650645   20.039100 H          1 MOL1         0.0783
      58    O14     17.855778   23.671881   19.749565 O.3        1 MOL1        -0.3740
      59    C18     16.902669   21.876846   18.434536 C.3        1 MOL1         0.0138
      60    H28     16.132294   22.594573   18.122317 H          1 MOL1         0.0794
      61    H29     16.428015   20.889370   18.508383 H          1 MOL1         0.0794
      62    O15     17.967253   21.829706   17.482008 O.3        1 MOL1        -0.5486
      63    H30     18.395351   22.713367   17.503452 H          1 MOL1         0.3769
      64    C19     23.472110   22.833275   22.125815 C.3        1 MOL1         0.2972
      65    H31     24.544315   22.886541   22.355101 H          1 MOL1         0.0751
      66    O16     23.094497   21.529987   21.632453 O.3        1 MOL1        -0.3740
      67    C20     22.640384   23.156712   23.391585 C.3        1 MOL1         0.1003
      68    H32     22.877268   24.187999   23.684008 H          1 MOL1         0.0783
      69    O17     22.969518   22.271136   24.473677 O.3        1 MOL1        -0.5519
      70    H33     23.638089   21.628127   24.130755 H          1 MOL1         0.3769
      71    C21     21.128530   23.079363   23.084636 C.3        1 MOL1         0.1053
      72    H34     20.884662   22.025291   22.919423 H          1 MOL1         0.0783
      73    O18     20.386572   23.559169   24.209414 O.3        1 MOL1        -0.5519
      74    H35     20.804203   23.125568   24.987338 H          1 MOL1         0.3769
      75    C22     20.737432   23.877607   21.813232 C.3        1 MOL1         0.1018
      76    H36     20.615603   24.934156   22.087094 H          1 MOL1         0.0783
      77    C23     21.752951   23.737983   20.641911 C.3        1 MOL1         0.1043
      78    H37     21.585380   22.762955   20.166635 H          1 MOL1         0.0783
      79    O19     23.117539   23.809444   21.125635 O.3        1 MOL1        -0.3740
      80    C24     21.581136   24.816209   19.549182 C.3        1 MOL1         0.0138
      81    H38     20.593961   24.700163   19.082682 H          1 MOL1         0.0794
      82    H39     22.333090   24.648816   18.766405 H          1 MOL1         0.0794
      83    O20     21.717280   26.131247   20.095042 O.3        1 MOL1        -0.5486
      84    H40     22.604611   26.164322   20.517237 H          1 MOL1         0.3769
      85    C25     24.793343   17.809992   20.819701 C.3        1 MOL1         0.2972
      86    H41     25.455903   16.997108   20.495772 H          1 MOL1         0.0751
      87    O21     23.472287   17.320238   21.123798 O.3        1 MOL1        -0.3740
      88    C26     25.381888   18.550349   22.053140 C.3        1 MOL1         0.1003
      89    H42     26.355043   18.955780   21.746994 H          1 MOL1         0.0783
      90    O22     25.580433   17.669513   23.169222 O.3        1 MOL1        -0.5519
      91    H43     24.688762   17.323967   23.428141 H          1 MOL1         0.3769
      92    C27     24.482883   19.740794   22.465120 C.3        1 MOL1         0.1053
      93    H44     23.530789   19.335807   22.834823 H          1 MOL1         0.0783
      94    O23     25.131280   20.482700   23.503344 O.3        1 MOL1        -0.5519
      95    H45     25.513912   19.802250   24.102533 H          1 MOL1         0.3769
      96    C28     24.178601   20.660800   21.253963 C.3        1 MOL1         0.1018
      97    H46     25.078101   21.229724   20.982725 H          1 MOL1         0.0783
      98    C29     23.711587   19.854565   20.014221 C.3        1 MOL1         0.1043
      99    H47     22.710174   19.453111   20.210124 H          1 MOL1         0.0783
     100    O24     24.653307   18.781431   19.761867 O.3        1 MOL1        -0.3740
     101    C30     23.645448   20.718915   18.738343 C.3        1 MOL1         0.0138
     102    H48     24.658153   21.047568   18.469207 H          1 MOL1         0.0794
     103    H49     23.046075   21.615997   18.934985 H          1 MOL1         0.0794
     104    O25     23.060003   19.968069   17.672808 O.3        1 MOL1        -0.5486
     105    H50     23.586083   19.141881   17.603220 H          1 MOL1         0.3769
     106    C31     21.295914   13.903729   21.891158 C.3        1 MOL1         0.2972
     107    H51     20.913467   12.906002   22.142599 H          1 MOL1         0.0751
     108    O26     20.281847   14.731591   21.287096 O.3        1 MOL1        -0.3740
     109    C32     21.838397   14.614119   23.158065 C.3        1 MOL1         0.1003
     110    H52     22.677790   14.014840   23.534248 H          1 MOL1         0.0783
     111    O27     20.839964   14.720162   24.185263 O.3        1 MOL1        -0.5519
     112    H53     20.018763   14.287770   23.845320 H          1 MOL1         0.3769
     113    C33     22.372786   16.018007   22.800164 C.3        1 MOL1         0.1053
     114    H54     21.514710   16.627063   22.491386 H          1 MOL1         0.0783
     115    O28     22.988437   16.596284   23.955309 O.3        1 MOL1        -0.5519
     116    H55     22.359015   16.410364   24.688290 H          1 MOL1         0.3769
     117    C34     23.379239   15.971611   21.623651 C.3        1 MOL1         0.1018
     118    H56     24.342802   15.604725   22.001224 H          1 MOL1         0.0783
     119    C35     22.894736   15.071696   20.449710 C.3        1 MOL1         0.1043
     120    H57     22.090514   15.600381   19.921240 H          1 MOL1         0.0783
     121    O29     22.393273   13.808511   20.957812 O.3        1 MOL1        -0.3740
     122    C36     23.997601   14.758481   19.414247 C.3        1 MOL1         0.0138
     123    H58     24.297778   15.690537   18.917604 H          1 MOL1         0.0794
     124    H59     23.579676   14.098482   18.642229 H          1 MOL1         0.0794
     125    O30     25.130448   14.142548   20.033161 O.3        1 MOL1        -0.5486
     126    H60     24.797303   13.327537   20.470531 H          1 MOL1         0.3769
     127    N1      20.151182   17.935456   15.571912 N.4        1 MOL1        -0.5940
     128    H1      21.077548   17.499712   15.616462 H          1 MOL1         0.3649
     129    H2      20.097647   18.429906   14.675261 H          1 MOL1         0.3649
     130    H3      19.457420   17.182397   15.540962 H          1 MOL1         0.3649
     131    C1      19.918437   18.873732   16.738309 C.3        1 MOL1         0.0207
     132    H4      18.934566   19.335886   16.615128 H          1 MOL1         0.0950
     133    H5      20.674808   19.662902   16.691964 H          1 MOL1         0.0950
     134    C2      19.995457   18.172004   18.105027 C.3        1 MOL1        -0.1415
     135    H6      19.251758   17.367671   18.146894 H          1 MOL1         0.0976
     136    H7      20.987272   17.715913   18.225571 H          1 MOL1         0.0976
     137    C3      19.742387   19.177106   19.245870 C.3        1 MOL1        -0.1375
     138    H8      18.721619   19.571628   19.159276 H          1 MOL1         0.0976
     139    H9      20.424056   20.031199   19.124592 H          1 MOL1         0.0976
     140    C4      19.938557   18.557536   20.647342 C.3        1 MOL1        -0.1375
     141    H10     19.182056   17.782960   20.828380 H          1 MOL1         0.0976
     142    H11     20.917237   18.064413   20.699361 H          1 MOL1         0.0976
     143    C5      19.849744   19.641098   21.741923 C.3        1 MOL1        -0.1350
     144    H12     18.854546   20.102797   21.729103 H          1 MOL1         0.0976
     145    H13     20.568484   20.437319   21.513286 H          1 MOL1         0.0976
     146    C6      20.132841   19.085611   23.152352 C.3        1 MOL1        -0.2365
     147    H14     19.482282   18.231902   23.383655 H          1 MOL1         0.0987
     148    H15     19.957876   19.857761   23.912772 H          1 MOL1         0.0987
     149    H16     21.176294   18.761017   23.244146 H          1 MOL1         0.0987
@<TRIPOS>BOND
    1     1     2    1
    2     1     3    1
    3     1     4    1
    4     4     5    1
    5     4     6    1
    6     6     7    1
    7     4     8    1
    8     8     9    1
    9     8    10    1
   10    10    11    1
   11     8    12    1
   12    12    13    1
   13    12    14    1
   14    14    15    1
   15     1    16    1
   16    14    16    1
   17    14    17    1
   18    17    18    1
   19    17    19    1
   20    17    20    1
   21    20    21    1
   22    22    23    1
   23    22    24    1
   24    22    25    1
   25    25    26    1
   26    25    27    1
   27    27    28    1
   28    25    29    1
   29    29    30    1
   30    29    31    1
   31    31    32    1
   32     3    33    1
   33    29    33    1
   34    33    34    1
   35    33    35    1
   36    35    36    1
   37    22    37    1
   38    35    37    1
   39    35    38    1
   40    38    39    1
   41    38    40    1
   42    38    41    1
   43    41    42    1
   44    43    44    1
   45    43    45    1
   46    43    46    1
   47    46    47    1
   48    46    48    1
   49    48    49    1
   50    46    50    1
   51    50    51    1
   52    50    52    1
   53    52    53    1
   54    24    54    1
   55    50    54    1
   56    54    55    1
   57    54    56    1
   58    56    57    1
   59    43    58    1
   60    56    58    1
   61    56    59    1
   62    59    60    1
   63    59    61    1
   64    59    62    1
   65    62    63    1
   66    64    65    1
   67    64    66    1
   68    64    67    1
   69    67    68    1
   70    67    69    1
   71    69    70    1
   72    67    71    1
   73    71    72    1
   74    71    73    1
   75    73    74    1
   76    45    75    1
   77    71    75    1
   78    75    76    1
   79    75    77    1
   80    77    78    1
   81    64    79    1
   82    77    79    1
   83    77    80    1
   84    80    81    1
   85    80    82    1
   86    80    83    1
   87    83    84    1
   88    85    86    1
   89    85    87    1
   90    85    88    1
   91    88    89    1
   92    88    90    1
   93    90    91    1
   94    88    92    1
   95    92    93    1
   96    92    94    1
   97    94    95    1
   98    66    96    1
   99    92    96    1
  100    96    97    1
  101    96    98    1
  102    98    99    1
  103    85   100    1
  104    98   100    1
  105    98   101    1
  106   101   102    1
  107   101   103    1
  108   101   104    1
  109   104   105    1
  110   106   107    1
  111    12   108    1
  112   106   108    1
  113   106   109    1
  114   109   110    1
  115   109   111    1
  116   111   112    1
  117   109   113    1
  118   113   114    1
  119   113   115    1
  120   115   116    1
  121    87   117    1
  122   113   117    1
  123   117   118    1
  124   117   119    1
  125   119   120    1
  126   106   121    1
  127   119   121    1
  128   119   122    1
  129   122   123    1
  130   122   124    1
  131   122   125    1
  132   125   126    1
  133   127   128    1
  134   127   129    1
  135   127   130    1
  136   127   131    1
  137   131   132    1
  138   131   133    1
  139   131   134    1
  140   134   135    1
  141   134   136    1
  142   134   137    1
  143   137   138    1
  144   137   139    1
  145   137   140    1
  146   140   141    1
  147   140   142    1
  148   140   143    1
  149   143   144    1
  150   143   145    1
  151   143   146    1
  152   146   147    1
  153   146   148    1
  154   146   149    1
@<TRIPOS>SUBSTRUCTURE
       1 MOL1            1 RESIDUE      1      MOL     
       2 MOL1          149 RESIDUE      1      MOL     
@<SCITEGIC>MOL_PROPERTY
VM2 Rank
SciTegic.value.IntegerValue
1

@<SCITEGIC>MOL_PROPERTY
Conf_Id
SciTegic.value.IntegerValue
16433

@<SCITEGIC>MOL_PROPERTY
Probability
SciTegic.value.DoubleValue
2.24

@<SCITEGIC>MOL_PROPERTY
Sum Probability
SciTegic.value.DoubleValue
2.24

@<SCITEGIC>MOL_PROPERTY
Delta G
SciTegic.value.DoubleValue
0.000

@<SCITEGIC>MOL_PROPERTY
G
SciTegic.value.DoubleValue
557.147

@<SCITEGIC>MOL_PROPERTY
E
SciTegic.value.DoubleValue
360.382

@<SCITEGIC>MOL_PROPERTY
-TS
SciTegic.value.DoubleValue
196.765

@<SCITEGIC>MOL_PROPERTY
U+W
SciTegic.value.DoubleValue
228.929

@<SCITEGIC>MOL_PROPERTY
U
SciTegic.value.DoubleValue
307.716

@<SCITEGIC>MOL_PROPERTY
W
SciTegic.value.DoubleValue
-78.788

@<SCITEGIC>MOL_PROPERTY
W(PB)
SciTegic.value.DoubleValue
-84.903

@<SCITEGIC>MOL_PROPERTY
W(SA)
SciTegic.value.DoubleValue
6.116

@<SCITEGIC>MOL_PROPERTY
Valence
SciTegic.value.DoubleValue
145.771

@<SCITEGIC>MOL_PROPERTY
Coulomb
SciTegic.value.DoubleValue
186.910

@<SCITEGIC>MOL_PROPERTY
VdW
SciTegic.value.DoubleValue
-24.965

@<SCITEGIC>MOL_PROPERTY
VdW6
SciTegic.value.DoubleValue
-174.327

@<SCITEGIC>MOL_PROPERTY
VdW12
SciTegic.value.DoubleValue
149.362

@<SCITEGIC>MOL_PROPERTY
Bond
SciTegic.value.DoubleValue
4.369

@<SCITEGIC>MOL_PROPERTY
Angle
SciTegic.value.DoubleValue
10.192

@<SCITEGIC>MOL_PROPERTY
Pdih
SciTegic.value.DoubleValue
131.211

@<SCITEGIC>MOL_PROPERTY
Idih
SciTegic.value.DoubleValue
0.000

@<SCITEGIC>MOL_PROPERTY
Tether
SciTegic.value.DoubleValue
0.000

@<TRIPOS>MOLECULE
CD_guest-2_vm2_single.mol2 : vm2 host+ligand conformer 2
         149         154           2
SMALL
USER_CHARGES
 
@<TRIPOS>ATOM
       1    C1      16.204472   15.017152   20.549697 C.3        1 MOL1         0.2972
       2    H1      15.149227   14.906985   20.268172 H          1 MOL1         0.0751
       3    O1      16.537060   16.392089   20.838933 O.3        1 MOL1        -0.3740
       4    C2      16.562810   14.119699   21.763141 C.3        1 MOL1         0.1003
       5    H2      16.423675   13.078861   21.442802 H          1 MOL1         0.0783
       6    O2      15.714277   14.370262   22.892881 O.3        1 MOL1        -0.5519
       7    H3      15.897577   15.297282   23.189811 H          1 MOL1         0.3769
       8    C3      18.049940   14.301978   22.151598 C.3        1 MOL1         0.1053
       9    H4      18.174043   15.319966   22.547231 H          1 MOL1         0.0783
      10    O3      18.384993   13.344461   23.161835 O.3        1 MOL1        -0.5519
      11    H5      17.606004   13.325052   23.763334 H          1 MOL1         0.3769
      12    C4      18.992676   14.144318   20.925422 C.3        1 MOL1         0.1018
      13    H6      19.132718   13.078420   20.700787 H          1 MOL1         0.0783
      14    C5      18.467088   14.853811   19.647594 C.3        1 MOL1         0.1043
      15    H7      18.627385   15.932215   19.759887 H          1 MOL1         0.0783
      16    O4      17.054776   14.584497   19.467333 O.3        1 MOL1        -0.3740
      17    C6      19.209689   14.380738   18.378711 C.3        1 MOL1         0.0138
      18    H8      18.974142   13.324030   18.194195 H          1 MOL1         0.0794
      19    H9      20.292590   14.455531   18.546035 H          1 MOL1         0.0794
      20    O5      18.834105   15.182754   17.255595 O.3        1 MOL1        -0.5486
      21    H10     17.852332   15.140422   17.212476 H          1 MOL1         0.3769
      22    C7      15.002690   20.095907   21.838686 C.3        1 MOL1         0.2972
      23    H11     14.379187   20.942905   22.150864 H          1 MOL1         0.0751
      24    O6      16.239236   20.536184   21.241596 O.3        1 MOL1        -0.3740
      25    C8      15.330991   19.187970   23.052524 C.3        1 MOL1         0.1003
      26    H12     14.374255   18.835412   23.459387 H          1 MOL1         0.0783
      27    O7      16.042336   19.906522   24.073701 O.3        1 MOL1        -0.5519
      28    H13     15.841257   20.864476   23.945977 H          1 MOL1         0.3769
      29    C9      16.154071   17.954201   22.614923 C.3        1 MOL1         0.1053
      30    H14     17.144478   18.302690   22.299539 H          1 MOL1         0.0783
      31    O8      16.291578   17.071233   23.731679 O.3        1 MOL1        -0.5519
      32    H15     16.544866   17.659221   24.478778 H          1 MOL1         0.3769
      33    C10     15.506940   17.217049   21.415196 C.3        1 MOL1         0.1018
      34    H16     14.655823   16.624745   21.776439 H          1 MOL1         0.0783
      35    C11     15.042149   18.192447   20.297672 C.3        1 MOL1         0.1043
      36    H17     15.933721   18.580590   19.787540 H          1 MOL1         0.0783
      37    O9      14.294387   19.293057   20.870706 O.3        1 MOL1        -0.3740
      38    C12     14.150807   17.519676   19.230068 C.3        1 MOL1         0.0138
      39    H18     14.739157   16.757886   18.701532 H          1 MOL1         0.0794
      40    H19     13.854870   18.274956   18.489721 H          1 MOL1         0.0794
      41    O10     12.992761   16.924383   19.822473 O.3        1 MOL1        -0.5486
      42    H20     12.524334   17.646205   20.298058 H          1 MOL1         0.3769
      43    C13     18.452963   24.062014   21.003243 C.3        1 MOL1         0.2972
      44    H21     18.809410   25.079008   20.794132 H          1 MOL1         0.0751
      45    O11     19.513632   23.203908   21.464132 O.3        1 MOL1        -0.3740
      46    C14     17.356863   24.073408   22.097004 C.3        1 MOL1         0.1003
      47    H22     16.527874   24.688518   21.723388 H          1 MOL1         0.0783
      48    O12     17.852826   24.644213   23.318970 O.3        1 MOL1        -0.5519
      49    H23     18.739464   24.240277   23.498718 H          1 MOL1         0.3769
      50    C15     16.814868   22.643863   22.350738 C.3        1 MOL1         0.1053
      51    H24     17.621850   22.049557   22.801132 H          1 MOL1         0.0783
      52    O13     15.715080   22.732714   23.263167 O.3        1 MOL1        -0.5519
      53    H25     15.990662   23.409069   23.923688 H          1 MOL1         0.3769
      54    C16     16.390686   21.953764   21.020508 C.3        1 MOL1         0.1018
      55    H26     15.457811   22.398784   20.649543 H          1 MOL1         0.0783
      56    C17     17.482558   22.092736   19.926962 C.3        1 MOL1         0.1043
      57    H27     18.343222   21.475363   20.208737 H          1 MOL1         0.0783
      58    O14     17.880830   23.479314   19.813338 O.3        1 MOL1        -0.3740
      59    C18     16.992868   21.624534   18.540842 C.3        1 MOL1         0.0138
      60    H28     16.222498   22.315555   18.173301 H          1 MOL1         0.0794
      61    H29     16.533264   20.631946   18.634336 H          1 MOL1         0.0794
      62    O15     18.093410   21.561616   17.631126 O.3        1 MOL1        -0.5486
      63    H30     18.489315   22.459792   17.616227 H          1 MOL1         0.3769
      64    C19     23.582862   22.924683   21.913455 C.3        1 MOL1         0.2972
      65    H31     24.665402   23.063611   22.028919 H          1 MOL1         0.0751
      66    O16     23.236456   21.538106   21.713912 O.3        1 MOL1        -0.3740
      67    C20     22.847057   23.439891   23.174639 C.3        1 MOL1         0.1003
      68    H32     23.050200   24.515320   23.260264 H          1 MOL1         0.0783
      69    O17     23.323148   22.773307   24.354507 O.3        1 MOL1        -0.5519
      70    H33     23.736715   21.922543   24.063247 H          1 MOL1         0.3769
      71    C21     21.320199   23.251996   23.027633 C.3        1 MOL1         0.1053
      72    H34     21.119218   22.175736   23.055460 H          1 MOL1         0.0783
      73    O18     20.648227   23.885510   24.120431 O.3        1 MOL1        -0.5519
      74    H35     21.149303   23.608476   24.919945 H          1 MOL1         0.3769
      75    C22     20.792704   23.824771   21.686394 C.3        1 MOL1         0.1018
      76    H36     20.708694   24.914942   21.788362 H          1 MOL1         0.0783
      77    C23     21.689650   23.471436   20.464915 C.3        1 MOL1         0.1043
      78    H37     21.521453   22.416476   20.210968 H          1 MOL1         0.0783
      79    O19     23.088514   23.676419   20.786547 O.3        1 MOL1        -0.3740
      80    C24     21.372469   24.307488   19.205139 C.3        1 MOL1         0.0138
      81    H38     20.351678   24.081993   18.870798 H          1 MOL1         0.0794
      82    H39     22.053290   24.003359   18.398774 H          1 MOL1         0.0794
      83    O20     21.507614   25.707139   19.467333 O.3        1 MOL1        -0.5486
      84    H40     22.428087   25.840156   19.785983 H          1 MOL1         0.3769
      85    C25     24.888365   17.793023   20.969627 C.3        1 MOL1         0.2972
      86    H41     25.543863   16.959927   20.684823 H          1 MOL1         0.0751
      87    O21     23.536418   17.343261   21.193980 O.3        1 MOL1        -0.3740
      88    C26     25.423920   18.516793   22.236512 C.3        1 MOL1         0.1003
      89    H42     26.418634   18.907506   21.985517 H          1 MOL1         0.0783
      90    O22     25.548357   17.628610   23.357107 O.3        1 MOL1        -0.5519
      91    H43     24.637315   17.305257   23.573061 H          1 MOL1         0.3769
      92    C27     24.520708   19.719613   22.598944 C.3        1 MOL1         0.1053
      93    H44     23.536934   19.331063   22.897015 H          1 MOL1         0.0783
      94    O23     25.103677   20.448839   23.683397 O.3        1 MOL1        -0.5519
      95    H45     25.412198   19.763363   24.317678 H          1 MOL1         0.3769
      96    C28     24.324032   20.655228   21.380505 C.3        1 MOL1         0.1018
      97    H46     25.256542   21.202264   21.187457 H          1 MOL1         0.0783
      98    C29     23.927831   19.876873   20.098560 C.3        1 MOL1         0.1043
      99    H47     22.901349   19.511729   20.211107 H          1 MOL1         0.0783
     100    O24     24.845105   18.769648   19.906643 O.3        1 MOL1        -0.3740
     101    C30     23.989623   20.754852   18.831711 C.3        1 MOL1         0.0138
     102    H48     25.030102   21.053045   18.645955 H          1 MOL1         0.0794
     103    H49     23.405342   21.668964   18.992024 H          1 MOL1         0.0794
     104    O25     23.464345   20.035656   17.714297 O.3        1 MOL1        -0.5486
     105    H50     23.980422   19.201863   17.660495 H          1 MOL1         0.3769
     106    C31     21.239128   13.970380   21.894568 C.3        1 MOL1         0.2972
     107    H51     20.849182   12.974409   22.141242 H          1 MOL1         0.0751
     108    O26     20.242454   14.787065   21.246623 O.3        1 MOL1        -0.3740
     109    C32     21.739574   14.687385   23.176599 C.3        1 MOL1         0.1003
     110    H52     22.545412   14.072103   23.597654 H          1 MOL1         0.0783
     111    O27     20.697328   14.830677   24.154779 O.3        1 MOL1        -0.5519
     112    H53     19.942063   14.263158   23.865927 H          1 MOL1         0.3769
     113    C33     22.322405   16.076066   22.835092 C.3        1 MOL1         0.1053
     114    H54     21.489164   16.702909   22.500371 H          1 MOL1         0.0783
     115    O28     22.904855   16.642202   24.012604 O.3        1 MOL1        -0.5519
     116    H55     22.240133   16.475777   24.718686 H          1 MOL1         0.3769
     117    C34     23.370824   16.001017   21.695331 C.3        1 MOL1         0.1018
     118    H56     24.306056   15.598079   22.106047 H          1 MOL1         0.0783
     119    C35     22.896396   15.119015   20.505128 C.3        1 MOL1         0.1043
     120    H57     22.113110   15.665033   19.963069 H          1 MOL1         0.0783
     121    O29     22.363469   13.862205   20.995489 O.3        1 MOL1        -0.3740
     122    C36     24.017515   14.793518   19.493281 C.3        1 MOL1         0.0138
     123    H58     24.348559   15.724370   19.014148 H          1 MOL1         0.0794
     124    H59     23.605563   14.149977   18.704402 H          1 MOL1         0.0794
     125    O30     25.122357   14.148852   20.133327 O.3        1 MOL1        -0.5486
     126    H60     24.761941   13.338038   20.556591 H          1 MOL1         0.3769
     127    N1      20.457629   17.403816   16.145398 N.4        1 MOL1        -0.5940
     128    H1      20.180502   17.650289   15.190301 H          1 MOL1         0.3649
     129    H2      19.941460   16.544580   16.400256 H          1 MOL1         0.3649
     130    H3      21.453452   17.166743   16.124299 H          1 MOL1         0.3649
     131    C1      20.162053   18.519133   17.126049 C.3        1 MOL1         0.0207
     132    H4      19.093591   18.743280   17.061372 H          1 MOL1         0.0950
     133    H5      20.721402   19.409829   16.825672 H          1 MOL1         0.0950
     134    C2      20.520457   18.135760   18.570170 C.3        1 MOL1        -0.1415
     135    H6      20.145262   17.129837   18.779013 H          1 MOL1         0.0976
     136    H7      21.611823   18.094128   18.682022 H          1 MOL1         0.0976
     137    C3      19.917642   19.125986   19.586419 C.3        1 MOL1        -0.1375
     138    H8      18.838063   19.228081   19.408205 H          1 MOL1         0.0976
     139    H9      20.363912   20.118575   19.432610 H          1 MOL1         0.0976
     140    C4      20.152598   18.653969   21.036493 C.3        1 MOL1        -0.1375
     141    H10     19.615881   17.711473   21.214593 H          1 MOL1         0.0976
     142    H11     21.217786   18.447335   21.178312 H          1 MOL1         0.0976
     143    C5      19.714549   19.707342   22.069693 C.3        1 MOL1        -0.1350
     144    H12     18.644211   19.914618   21.965314 H          1 MOL1         0.0976
     145    H13     20.238175   20.646391   21.862317 H          1 MOL1         0.0976
     146    C6      20.010025   19.253892   23.513879 C.3        1 MOL1        -0.2365
     147    H14     19.488580   18.315992   23.747248 H          1 MOL1         0.0987
     148    H15     19.674975   20.012995   24.232638 H          1 MOL1         0.0987
     149    H16     21.085602   19.094957   23.666183 H          1 MOL1         0.0987
@<TRIPOS>BOND
    1     1     2    1
    2     1     3    1
    3     1     4    1
    4     4     5    1
    5     4     6    1
    6     6     7    1
    7     4     8    1
    8     8     9    1
    9     8    10    1
   10    10    11    1
   11     8    12    1
   12    12    13    1
   13    12    14    1
   14    14    15    1
   15     1    16    1
   16    14    16    1
   17    14    17    1
   18    17    18    1
   19    17    19    1
   20    17    20    1
   21    20    21    1
   22    22    23    1
   23    22    24    1
   24    22    25    1
   25    25    26    1
   26    25    27    1
   27    27    28    1
   28    25    29    1
   29    29    30    1
   30    29    31    1
   31    31    32    1
   32     3    33    1
   33    29    33    1
   34    33    34    1
   35    33    35    1
   36    35    36    1
   37    22    37    1
   38    35    37    1
   39    35    38    1
   40    38    39    1
   41    38    40    1
   42    38    41    1
   43    41    42    1
   44    43    44    1
   45    43    45    1
   46    43    46    1
   47    46    47    1
   48    46    48    1
   49    48    49    1
   50    46    50    1
   51    50    51    1
   52    50    52    1
   53    52    53    1
   54    24    54    1
   55    50    54    1
   56    54    55    1
   57    54    56    1
   58    56    57    1
   59    43    58    1
   60    56    58    1
   61    56    59    1
   62    59    60    1
   63    59    61    1
   64    59    62    1
   65    62    63    1
   66    64    65    1
   67    64    66    1
   68    64    67    1
   69    67    68    1
   70    67    69    1
   71    69    70    1
   72    67    71    1
   73    71    72    1
   74    71    73    1
   75    73    74    1
   76    45    75    1
   77    71    75    1
   78    75    76    1
   79    75    77    1
   80    77    78    1
   81    64    79    1
   82    77    79    1
   83    77    80    1
   84    80    81    1
   85    80    82    1
   86    80    83    1
   87    83    84    1
   88    85    86    1
   89    85    87    1
   90    85    88    1
   91    88    89    1
   92    88    90    1
   93    90    91    1
   94    88    92    1
   95    92    93    1
   96    92    94    1
   97    94    95    1
   98    66    96    1
   99    92    96    1
  100    96    97    1
  101    96    98    1
  102    98    99    1
  103    85   100    1
  104    98   100    1
  105    98   101    1
  106   101   102    1
  107   101   103    1
  108   101   104    1
  109   104   105    1
  110   106   107    1
  111    12   108    1
  112   106   108    1
  113   106   109    1
  114   109   110    1
  115   109   111    1
  116   111   112    1
  117   109   113    1
  118   113   114    1
  119   113   115    1
  120   115   116    1
  121    87   117    1
  122   113   117    1
  123   117   118    1
  124   117   119    1
  125   119   120    1
  126   106   121    1
  127   119   121    1
  128   119   122    1
  129   122   123    1
  130   122   124    1
  131   122   125    1
  132   125   126    1
  133   127   128    1
  134   127   129    1
  135   127   130    1
  136   127   131    1
  137   131   132    1
  138   131   133    1
  139   131   134    1
  140   134   135    1
  141   134   136    1
  142   134   137    1
  143   137   138    1
  144   137   139    1
  145   137   140    1
  146   140   141    1
  147   140   142    1
  148   140   143    1
  149   143   144    1
  150   143   145    1
  151   143   146    1
  152   146   147    1
  153   146   148    1
  154   146   149    1
@<TRIPOS>SUBSTRUCTURE
       1 MOL1            1 RESIDUE      1      MOL     
       2 MOL1          149 RESIDUE      1      MOL     
@<SCITEGIC>MOL_PROPERTY
VM2 Rank
SciTegic.value.IntegerValue
2

@<SCITEGIC>MOL_PROPERTY
Conf_Id
SciTegic.value.IntegerValue
16594

@<SCITEGIC>MOL_PROPERTY
Probability
SciTegic.value.DoubleValue
2.22

@<SCITEGIC>MOL_PROPERTY
Sum Probability
SciTegic.value.DoubleValue
4.46

@<SCITEGIC>MOL_PROPERTY
Delta G
SciTegic.value.DoubleValue
0.005

@<SCITEGIC>MOL_PROPERTY
G
SciTegic.value.DoubleValue
557.152

@<SCITEGIC>MOL_PROPERTY
E
SciTegic.value.DoubleValue
359.287

@<SCITEGIC>MOL_PROPERTY
-TS
SciTegic.value.DoubleValue
197.866

@<SCITEGIC>MOL_PROPERTY
U+W
SciTegic.value.DoubleValue
227.833

@<SCITEGIC>MOL_PROPERTY
U
SciTegic.value.DoubleValue
297.837

@<SCITEGIC>MOL_PROPERTY
W
SciTegic.value.DoubleValue
-70.004

@<SCITEGIC>MOL_PROPERTY
W(PB)
SciTegic.value.DoubleValue
-75.968

@<SCITEGIC>MOL_PROPERTY
W(SA)
SciTegic.value.DoubleValue
5.964

@<SCITEGIC>MOL_PROPERTY
Valence
SciTegic.value.DoubleValue
146.150

@<SCITEGIC>MOL_PROPERTY
Coulomb
SciTegic.value.DoubleValue
177.037

@<SCITEGIC>MOL_PROPERTY
VdW
SciTegic.value.DoubleValue
-25.350

@<SCITEGIC>MOL_PROPERTY
VdW6
SciTegic.value.DoubleValue
-176.041

@<SCITEGIC>MOL_PROPERTY
VdW12
SciTegic.value.DoubleValue
150.691

@<SCITEGIC>MOL_PROPERTY
Bond
SciTegic.value.DoubleValue
4.365

@<SCITEGIC>MOL_PROPERTY
Angle
SciTegic.value.DoubleValue
9.763

@<SCITEGIC>MOL_PROPERTY
Pdih
SciTegic.value.DoubleValue
132.023

@<SCITEGIC>MOL_PROPERTY
Idih
SciTegic.value.DoubleValue
0.000

@<SCITEGIC>MOL_PROPERTY
Tether
SciTegic.value.DoubleValue
0.000

@<TRIPOS>MOLECULE
CD_guest-2_vm2_single.mol2 : vm2 host+ligand conformer 3
         149         154           2
SMALL
USER_CHARGES
 
@<TRIPOS>ATOM
       1    C1      16.164560   14.933299   20.648150 C.3        1 MOL1         0.2972
       2    H1      15.097583   14.836839   20.408827 H          1 MOL1         0.0751
       3    O1      16.537523   16.310253   20.879912 O.3        1 MOL1        -0.3740
       4    C2      16.551653   14.065549   21.872844 C.3        1 MOL1         0.1003
       5    H2      16.395075   13.017728   21.584863 H          1 MOL1         0.0783
       6    O2      15.738480   14.353042   23.019289 O.3        1 MOL1        -0.5519
       7    H3      15.933579   15.287799   23.282455 H          1 MOL1         0.3769
       8    C3      18.051759   14.246404   22.208931 C.3        1 MOL1         0.1053
       9    H4      18.191844   15.273616   22.574299 H          1 MOL1         0.0783
      10    O3      18.410319   13.313723   23.234633 O.3        1 MOL1        -0.5519
      11    H5      17.644502   13.308556   23.853277 H          1 MOL1         0.3769
      12    C4      18.960511   14.053248   20.959948 C.3        1 MOL1         0.1018
      13    H6      19.122293   12.982157   20.779425 H          1 MOL1         0.0783
      14    C5      18.386079   14.696202   19.668228 C.3        1 MOL1         0.1043
      15    H7      18.563954   15.773833   19.727396 H          1 MOL1         0.0783
      16    O4      16.964413   14.441271   19.554014 O.3        1 MOL1        -0.3740
      17    C6      19.073113   14.163502   18.391875 C.3        1 MOL1         0.0138
      18    H8      18.889611   13.084150   18.305992 H          1 MOL1         0.0794
      19    H9      20.157962   14.311910   18.478907 H          1 MOL1         0.0794
      20    O5      18.575193   14.848751   17.238586 O.3        1 MOL1        -0.5486
      21    H10     17.596904   14.750927   17.276949 H          1 MOL1         0.3769
      22    C7      15.083697   20.074127   21.825209 C.3        1 MOL1         0.2972
      23    H11     14.466036   20.928546   22.128995 H          1 MOL1         0.0751
      24    O6      16.329339   20.501924   21.236150 O.3        1 MOL1        -0.3740
      25    C8      15.392716   19.173691   23.048510 C.3        1 MOL1         0.1003
      26    H12     14.429447   18.832846   23.449917 H          1 MOL1         0.0783
      27    O7      16.099579   19.895811   24.070254 O.3        1 MOL1        -0.5519
      28    H13     15.923832   20.855780   23.920238 H          1 MOL1         0.3769
      29    C9      16.206323   17.929452   22.623958 C.3        1 MOL1         0.1053
      30    H14     17.194481   18.267941   22.290653 H          1 MOL1         0.0783
      31    O8      16.348612   17.065319   23.754270 O.3        1 MOL1        -0.5519
      32    H15     16.607968   17.665150   24.489940 H          1 MOL1         0.3769
      33    C10     15.538360   17.181662   21.442569 C.3        1 MOL1         0.1018
      34    H16     14.668666   16.625314   21.816766 H          1 MOL1         0.0783
      35    C11     15.105442   18.150407   20.306773 C.3        1 MOL1         0.1043
      36    H17     16.009848   18.514825   19.801740 H          1 MOL1         0.0783
      37    O9      14.373229   19.273052   20.856805 O.3        1 MOL1        -0.3740
      38    C12     14.212145   17.479170   19.239898 C.3        1 MOL1         0.0138
      39    H18     14.789687   16.695439   18.731764 H          1 MOL1         0.0794
      40    H19     13.941287   18.227795   18.483383 H          1 MOL1         0.0794
      41    O10     13.034801   16.919421   19.828952 O.3        1 MOL1        -0.5486
      42    H20     12.577292   17.659273   20.287094 H          1 MOL1         0.3769
      43    C13     18.506421   24.037275   20.882172 C.3        1 MOL1         0.2972
      44    H21     18.862114   25.049420   20.649442 H          1 MOL1         0.0751
      45    O11     19.579538   23.177928   21.310912 O.3        1 MOL1        -0.3740
      46    C14     17.428585   24.063121   21.995418 C.3        1 MOL1         0.1003
      47    H22     16.585753   24.656018   21.616867 H          1 MOL1         0.0783
      48    O12     17.924979   24.674091   23.196720 O.3        1 MOL1        -0.5519
      49    H23     18.760790   24.204447   23.447235 H          1 MOL1         0.3769
      50    C15     16.910659   22.632835   22.288775 C.3        1 MOL1         0.1053
      51    H24     17.735900   22.057408   22.729284 H          1 MOL1         0.0783
      52    O13     15.830631   22.722481   23.224703 O.3        1 MOL1        -0.5519
      53    H25     16.109585   23.415670   23.865885 H          1 MOL1         0.3769
      54    C16     16.462941   21.915781   20.981264 C.3        1 MOL1         0.1018
      55    H26     15.515181   22.345286   20.630030 H          1 MOL1         0.0783
      56    C17     17.517454   22.052729   19.850914 C.3        1 MOL1         0.1043
      57    H27     18.391635   21.439904   20.103127 H          1 MOL1         0.0783
      58    O14     17.903147   23.442360   19.714233 O.3        1 MOL1        -0.3740
      59    C18     16.973734   21.579644   18.487053 C.3        1 MOL1         0.0138
      60    H28     16.158187   22.243610   18.170712 H          1 MOL1         0.0794
      61    H29     16.559488   20.568398   18.592196 H          1 MOL1         0.0794
      62    O15     18.023993   21.575042   17.518596 O.3        1 MOL1        -0.5486
      63    H30     18.420911   22.473206   17.541806 H          1 MOL1         0.3769
      64    C19     23.581105   22.918874   22.054884 C.3        1 MOL1         0.2972
      65    H31     24.652578   23.027478   22.267005 H          1 MOL1         0.0751
      66    O16     23.246944   21.578694   21.637997 O.3        1 MOL1        -0.3740
      67    C20     22.746604   23.273022   23.310368 C.3        1 MOL1         0.1003
      68    H32     22.926307   24.331938   23.537547 H          1 MOL1         0.0783
      69    O17     23.135916   22.476275   24.440077 O.3        1 MOL1        -0.5519
      70    H33     23.699318   21.738342   24.098384 H          1 MOL1         0.3769
      71    C21     21.239129   23.094209   23.024155 C.3        1 MOL1         0.1053
      72    H34     21.053917   22.021944   22.900904 H          1 MOL1         0.0783
      73    O18     20.481395   23.578105   24.136624 O.3        1 MOL1        -0.5519
      74    H35     20.934975   23.209072   24.927603 H          1 MOL1         0.3769
      75    C22     20.798484   23.820237   21.726259 C.3        1 MOL1         0.1018
      76    H36     20.646585   24.883196   21.956899 H          1 MOL1         0.0783
      77    C23     21.804561   23.664621   20.547616 C.3        1 MOL1         0.1043
      78    H37     21.677083   22.659790   20.123589 H          1 MOL1         0.0783
      79    O19     23.170890   23.822950   21.008560 O.3        1 MOL1        -0.3740
      80    C24     21.571561   24.676853   19.404273 C.3        1 MOL1         0.0138
      81    H38     20.585754   24.492548   18.957291 H          1 MOL1         0.0794
      82    H39     22.321734   24.503874   18.620992 H          1 MOL1         0.0794
      83    O20     21.653197   26.022852   19.881250 O.3        1 MOL1        -0.5486
      84    H40     22.543067   26.117850   20.288380 H          1 MOL1         0.3769
      85    C25     24.866419   17.835143   20.891974 C.3        1 MOL1         0.2972
      86    H41     25.508824   16.991447   20.608855 H          1 MOL1         0.0751
      87    O21     23.499311   17.409438   21.080035 O.3        1 MOL1        -0.3740
      88    C26     25.403589   18.536764   22.172410 C.3        1 MOL1         0.1003
      89    H42     26.413283   18.897325   21.936457 H          1 MOL1         0.0783
      90    O22     25.485285   17.643490   23.292818 O.3        1 MOL1        -0.5519
      91    H43     24.556547   17.380391   23.515287 H          1 MOL1         0.3769
      92    C27     24.537340   19.765537   22.536184 C.3        1 MOL1         0.1053
      93    H44     23.547408   19.402161   22.844576 H          1 MOL1         0.0783
      94    O23     25.150428   20.475011   23.616726 O.3        1 MOL1        -0.5519
      95    H45     25.454514   19.778464   24.241538 H          1 MOL1         0.3769
      96    C28     24.349123   20.709212   21.321322 C.3        1 MOL1         0.1018
      97    H46     25.275619   21.268666   21.134746 H          1 MOL1         0.0783
      98    C29     23.960160   19.940377   20.032647 C.3        1 MOL1         0.1043
      99    H47     22.930206   19.584982   20.138686 H          1 MOL1         0.0783
     100    O24     24.864161   18.823791   19.840491 O.3        1 MOL1        -0.3740
     101    C30     24.031857   20.824229   18.771263 C.3        1 MOL1         0.0138
     102    H48     25.078647   21.089169   18.570914 H          1 MOL1         0.0794
     103    H49     23.479903   21.756296   18.946887 H          1 MOL1         0.0794
     104    O25     23.464933   20.126450   17.660307 O.3        1 MOL1        -0.5486
     105    H50     23.946899   19.272586   17.599071 H          1 MOL1         0.3769
     106    C31     21.218281   14.025458   21.930156 C.3        1 MOL1         0.2972
     107    H51     20.866678   13.033344   22.241330 H          1 MOL1         0.0751
     108    O26     20.203042   14.743856   21.202618 O.3        1 MOL1        -0.3740
     109    C32     21.658271   14.859599   23.164592 C.3        1 MOL1         0.1003
     110    H52     22.470894   14.306202   23.653086 H          1 MOL1         0.0783
     111    O27     20.588149   15.045984   24.104463 O.3        1 MOL1        -0.5519
     112    H53     19.903130   14.362097   23.910061 H          1 MOL1         0.3769
     113    C33     22.207916   16.236485   22.730727 C.3        1 MOL1         0.1053
     114    H54     21.372760   16.808536   22.307949 H          1 MOL1         0.0783
     115    O28     22.732199   16.912063   23.878246 O.3        1 MOL1        -0.5519
     116    H55     22.039988   16.795221   24.567490 H          1 MOL1         0.3769
     117    C34     23.300826   16.096130   21.643461 C.3        1 MOL1         0.1018
     118    H56     24.214350   15.708328   22.112577 H          1 MOL1         0.0783
     119    C35     22.863948   15.142020   20.496900 C.3        1 MOL1         0.1043
     120    H57     22.071689   15.635038   19.917853 H          1 MOL1         0.0783
     121    O29     22.363356   13.900908   21.058243 O.3        1 MOL1        -0.3740
     122    C36     24.005761   14.789532   19.517605 C.3        1 MOL1         0.0138
     123    H58     24.317344   15.700181   18.989098 H          1 MOL1         0.0794
     124    H59     23.620644   14.090809   18.762864 H          1 MOL1         0.0794
     125    O30     25.119932   14.213261   20.205232 O.3        1 MOL1        -0.5486
     126    H60     24.775918   13.419222   20.671691 H          1 MOL1         0.3769
     127    N1      19.643302   17.195153   15.752885 N.4        1 MOL1        -0.5940
     128    H1      18.803114   17.677815   15.421022 H          1 MOL1         0.3649
     129    H2      19.336649   16.285340   16.136965 H          1 MOL1         0.3649
     130    H3      20.227849   16.998855   14.934568 H          1 MOL1         0.3649
     131    C1      20.380201   18.002744   16.800552 C.3        1 MOL1         0.0207
     132    H4      20.671027   18.963631   16.366880 H          1 MOL1         0.0950
     133    H5      21.287596   17.452370   17.062834 H          1 MOL1         0.0950
     134    C2      19.533316   18.225256   18.063458 C.3        1 MOL1        -0.1415
     135    H6      18.699379   18.903599   17.840065 H          1 MOL1         0.0976
     136    H7      19.091959   17.271723   18.361209 H          1 MOL1         0.0976
     137    C3      20.376656   18.785399   19.225495 C.3        1 MOL1        -0.1375
     138    H8      20.675400   19.816304   18.987191 H          1 MOL1         0.0976
     139    H9      21.300418   18.198633   19.323704 H          1 MOL1         0.0976
     140    C4      19.613483   18.746170   20.568600 C.3        1 MOL1        -0.1375
     141    H10     18.623242   19.203621   20.449041 H          1 MOL1         0.0976
     142    H11     19.443207   17.702271   20.866570 H          1 MOL1         0.0976
     143    C5      20.393988   19.481864   21.677427 C.3        1 MOL1        -0.1350
     144    H12     20.537074   20.528569   21.381100 H          1 MOL1         0.0976
     145    H13     21.395049   19.045719   21.781866 H          1 MOL1         0.0976
     146    C6      19.674271   19.419200   23.039886 C.3        1 MOL1        -0.2365
     147    H14     20.270793   19.913534   23.817264 H          1 MOL1         0.0987
     148    H15     19.510821   18.379761   23.354201 H          1 MOL1         0.0987
     149    H16     18.700561   19.921685   22.994602 H          1 MOL1         0.0987
@<TRIPOS>BOND
    1     1     2    1
    2     1     3    1
    3     1     4    1
    4     4     5    1
    5     4     6    1
    6     6     7    1
    7     4     8    1
    8     8     9    1
    9     8    10    1
   10    10    11    1
   11     8    12    1
   12    12    13    1
   13    12    14    1
   14    14    15    1
   15     1    16    1
   16    14    16    1
   17    14    17    1
   18    17    18    1
   19    17    19    1
   20    17    20    1
   21    20    21    1
   22    22    23    1
   23    22    24    1
   24    22    25    1
   25    25    26    1
   26    25    27    1
   27    27    28    1
   28    25    29    1
   29    29    30    1
   30    29    31    1
   31    31    32    1
   32     3    33    1
   33    29    33    1
   34    33    34    1
   35    33    35    1
   36    35    36    1
   37    22    37    1
   38    35    37    1
   39    35    38    1
   40    38    39    1
   41    38    40    1
   42    38    41    1
   43    41    42    1
   44    43    44    1
   45    43    45    1
   46    43    46    1
   47    46    47    1
   48    46    48    1
   49    48    49    1
   50    46    50    1
   51    50    51    1
   52    50    52    1
   53    52    53    1
   54    24    54    1
   55    50    54    1
   56    54    55    1
   57    54    56    1
   58    56    57    1
   59    43    58    1
   60    56    58    1
   61    56    59    1
   62    59    60    1
   63    59    61    1
   64    59    62    1
   65    62    63    1
   66    64    65    1
   67    64    66    1
   68    64    67    1
   69    67    68    1
   70    67    69    1
   71    69    70    1
   72    67    71    1
   73    71    72    1
   74    71    73    1
   75    73    74    1
   76    45    75    1
   77    71    75    1
   78    75    76    1
   79    75    77    1
   80    77    78    1
   81    64    79    1
   82    77    79    1
   83    77    80    1
   84    80    81    1
   85    80    82    1
   86    80    83    1
   87    83    84    1
   88    85    86    1
   89    85    87    1
   90    85    88    1
   91    88    89    1
   92    88    90    1
   93    90    91    1
   94    88    92    1
   95    92    93    1
   96    92    94    1
   97    94    95    1
   98    66    96    1
   99    92    96    1
  100    96    97    1
  101    96    98    1
  102    98    99    1
  103    85   100    1
  104    98   100    1
  105    98   101    1
  106   101   102    1
  107   101   103    1
  108   101   104    1
  109   104   105    1
  110   106   107    1
  111    12   108    1
  112   106   108    1
  113   106   109    1
  114   109   110    1
  115   109   111    1
  116   111   112    1
  117   109   113    1
  118   113   114    1
  119   113   115    1
  120   115   116    1
  121    87   117    1
  122   113   117    1
  123   117   118    1
  124   117   119    1
  125   119   120    1
  126   106   121    1
  127   119   121    1
  128   119   122    1
  129   122   123    1
  130   122   124    1
  131   122   125    1
  132   125   126    1
  133   127   128    1
  134   127   129    1
  135   127   130    1
  136   127   131    1
  137   131   132    1
  138   131   133    1
  139   131   134    1
  140   134   135    1
  141   134   136    1
  142   134   137    1
  143   137   138    1
  144   137   139    1
  145   137   140    1
  146   140   141    1
  147   140   142    1
  148   140   143    1
  149   143   144    1
  150   143   145    1
  151   143   146    1
  152   146   147    1
  153   146   148    1
  154   146   149    1
@<TRIPOS>SUBSTRUCTURE
       1 MOL1            1 RESIDUE      1      MOL     
       2 MOL1          149 RESIDUE      1      MOL     
@<SCITEGIC>MOL_PROPERTY
VM2 Rank
SciTegic.value.IntegerValue
3

@<SCITEGIC>MOL_PROPERTY
Conf_Id
SciTegic.value.IntegerValue
24220

@<SCITEGIC>MOL_PROPERTY
Probability
SciTegic.value.DoubleValue
1.52

@<SCITEGIC>MOL_PROPERTY
Sum Probability
SciTegic.value.DoubleValue
5.98

@<SCITEGIC>MOL_PROPERTY
Delta G
SciTegic.value.DoubleValue
0.231

@<SCITEGIC>MOL_PROPERTY
G
SciTegic.value.DoubleValue
557.378

@<SCITEGIC>MOL_PROPERTY
E
SciTegic.value.DoubleValue
358.532

@<SCITEGIC>MOL_PROPERTY
-TS
SciTegic.value.DoubleValue
198.846

@<SCITEGIC>MOL_PROPERTY
U+W
SciTegic.value.DoubleValue
227.078

@<SCITEGIC>MOL_PROPERTY
U
SciTegic.value.DoubleValue
297.767

@<SCITEGIC>MOL_PROPERTY
W
SciTegic.value.DoubleValue
-70.689

@<SCITEGIC>MOL_PROPERTY
W(PB)
SciTegic.value.DoubleValue
-76.750

@<SCITEGIC>MOL_PROPERTY
W(SA)
SciTegic.value.DoubleValue
6.061

@<SCITEGIC>MOL_PROPERTY
Valence
SciTegic.value.DoubleValue
146.213

@<SCITEGIC>MOL_PROPERTY
Coulomb
SciTegic.value.DoubleValue
175.944

@<SCITEGIC>MOL_PROPERTY
VdW
SciTegic.value.DoubleValue
-24.390

@<SCITEGIC>MOL_PROPERTY
VdW6
SciTegic.value.DoubleValue
-176.123

@<SCITEGIC>MOL_PROPERTY
VdW12
SciTegic.value.DoubleValue
151.733

@<SCITEGIC>MOL_PROPERTY
Bond
SciTegic.value.DoubleValue
4.427

@<SCITEGIC>MOL_PROPERTY
Angle
SciTegic.value.DoubleValue
10.276

@<SCITEGIC>MOL_PROPERTY
Pdih
SciTegic.value.DoubleValue
131.510

@<SCITEGIC>MOL_PROPERTY
Idih
SciTegic.value.DoubleValue
0.000

@<SCITEGIC>MOL_PROPERTY
Tether
SciTegic.value.DoubleValue
0.000

@<TRIPOS>MOLECULE
CD_guest-2_vm2_single.mol2 : vm2 host+ligand conformer 4
         149         154           2
SMALL
USER_CHARGES
 
@<TRIPOS>ATOM
       1    C1      16.276625   15.015111   20.631252 C.3        1 MOL1         0.2972
       2    H1      15.218045   14.925470   20.354897 H          1 MOL1         0.0751
       3    O1      16.656832   16.396300   20.826775 O.3        1 MOL1        -0.3740
       4    C2      16.598549   14.181954   21.900192 C.3        1 MOL1         0.1003
       5    H2      16.425790   13.128722   21.642927 H          1 MOL1         0.0783
       6    O2      15.755694   14.526832   23.008799 O.3        1 MOL1        -0.5519
       7    H3      15.987047   15.455448   23.263589 H          1 MOL1         0.3769
       8    C3      18.089233   14.338220   22.282394 C.3        1 MOL1         0.1053
       9    H4      18.249255   15.376390   22.605577 H          1 MOL1         0.0783
      10    O3      18.393650   13.443503   23.356787 O.3        1 MOL1        -0.5519
      11    H5      17.619158   13.496690   23.961828 H          1 MOL1         0.3769
      12    C4      19.026900   14.060346   21.076366 C.3        1 MOL1         0.1018
      13    H6      19.140447   12.976894   20.936813 H          1 MOL1         0.0783
      14    C5      18.531193   14.684853   19.743806 C.3        1 MOL1         0.1043
      15    H7      18.752349   15.757847   19.759695 H          1 MOL1         0.0783
      16    O4      17.106341   14.475131   19.582224 O.3        1 MOL1        -0.3740
      17    C6      19.243267   14.063102   18.524169 C.3        1 MOL1         0.0138
      18    H8      18.993168   12.995425   18.463884 H          1 MOL1         0.0794
      19    H9      20.330022   14.144245   18.660863 H          1 MOL1         0.0794
      20    O5      18.850632   14.736904   17.327168 O.3        1 MOL1        -0.5486
      21    H10     17.868010   14.719178   17.314985 H          1 MOL1         0.3769
      22    C7      15.090989   20.150133   21.746148 C.3        1 MOL1         0.2972
      23    H11     14.435351   20.974246   22.054236 H          1 MOL1         0.0751
      24    O6      16.296904   20.637277   21.124018 O.3        1 MOL1        -0.3740
      25    C8      15.470371   19.274180   22.970136 C.3        1 MOL1         0.1003
      26    H12     14.532163   18.898115   23.398584 H          1 MOL1         0.0783
      27    O7      16.174580   20.027666   23.970475 O.3        1 MOL1        -0.5519
      28    H13     15.924810   20.974807   23.848630 H          1 MOL1         0.3769
      29    C9      16.324127   18.059564   22.540589 C.3        1 MOL1         0.1053
      30    H14     17.289936   18.435663   22.183683 H          1 MOL1         0.0783
      31    O8      16.523111   17.216199   23.678323 O.3        1 MOL1        -0.5519
      32    H15     16.767420   17.837132   24.401611 H          1 MOL1         0.3769
      33    C10     15.657005   17.273952   21.383981 C.3        1 MOL1         0.1018
      34    H16     14.798356   16.717596   21.782532 H          1 MOL1         0.0783
      35    C11     15.186322   18.216276   20.242144 C.3        1 MOL1         0.1043
      36    H17     16.074392   18.615524   19.734198 H          1 MOL1         0.0783
      37    O9      14.407267   19.307120   20.793473 O.3        1 MOL1        -0.3740
      38    C12     14.317853   17.505036   19.180504 C.3        1 MOL1         0.0138
      39    H18     14.926289   16.745758   18.671352 H          1 MOL1         0.0794
      40    H19     14.012091   18.239790   18.423698 H          1 MOL1         0.0794
      41    O10     13.167917   16.896374   19.775308 O.3        1 MOL1        -0.5486
      42    H20     12.680520   17.616919   20.233311 H          1 MOL1         0.3769
      43    C13     18.454249   24.170464   20.907297 C.3        1 MOL1         0.2972
      44    H21     18.838089   25.181739   20.720034 H          1 MOL1         0.0751
      45    O11     19.500730   23.262946   21.302378 O.3        1 MOL1        -0.3740
      46    C14     17.369982   24.174434   22.013303 C.3        1 MOL1         0.1003
      47    H22     16.538043   24.791220   21.649000 H          1 MOL1         0.0783
      48    O12     17.865383   24.737710   23.237991 O.3        1 MOL1        -0.5519
      49    H23     18.682613   24.236343   23.488132 H          1 MOL1         0.3769
      50    C15     16.831408   22.741976   22.254270 C.3        1 MOL1         0.1053
      51    H24     17.643212   22.143092   22.690386 H          1 MOL1         0.0783
      52    O13     15.738301   22.819920   23.176019 O.3        1 MOL1        -0.5519
      53    H25     16.013120   23.496096   23.837037 H          1 MOL1         0.3769
      54    C16     16.391699   22.063506   20.922533 C.3        1 MOL1         0.1018
      55    H26     15.431429   22.482207   20.593052 H          1 MOL1         0.0783
      56    C17     17.433312   22.254229   19.787682 C.3        1 MOL1         0.1043
      57    H27     18.303464   21.622207   19.999780 H          1 MOL1         0.0783
      58    O14     17.837217   23.643012   19.714522 O.3        1 MOL1        -0.3740
      59    C18     16.875434   21.847312   18.408458 C.3        1 MOL1         0.0138
      60    H28     16.090488   22.554911   18.109533 H          1 MOL1         0.0794
      61    H29     16.417032   20.852116   18.482396 H          1 MOL1         0.0794
      62    O15     17.931622   21.826176   17.445845 O.3        1 MOL1        -0.5486
      63    H30     18.334959   22.722734   17.468198 H          1 MOL1         0.3769
      64    C19     23.464093   22.807341   22.103864 C.3        1 MOL1         0.2972
      65    H31     24.534523   22.864363   22.340373 H          1 MOL1         0.0751
      66    O16     23.095241   21.504227   21.603814 O.3        1 MOL1        -0.3740
      67    C20     22.621807   23.122897   23.364686 C.3        1 MOL1         0.1003
      68    H32     22.852752   24.153931   23.662694 H          1 MOL1         0.0783
      69    O17     22.945031   22.234538   24.446337 O.3        1 MOL1        -0.5519
      70    H33     23.635219   21.609363   24.113656 H          1 MOL1         0.3769
      71    C21     21.112720   23.040841   23.045751 C.3        1 MOL1         0.1053
      72    H34     20.875295   21.987050   22.870094 H          1 MOL1         0.0783
      73    O18     20.361222   23.508781   24.169114 O.3        1 MOL1        -0.5519
      74    H35     20.777403   23.072627   24.946443 H          1 MOL1         0.3769
      75    C22     20.727665   23.845642   21.776767 C.3        1 MOL1         0.1018
      76    H36     20.604169   24.900852   22.054977 H          1 MOL1         0.0783
      77    C23     21.750987   23.711398   20.611561 C.3        1 MOL1         0.1043
      78    H37     21.589652   22.737061   20.132552 H          1 MOL1         0.0783
      79    O19     23.112276   23.785551   21.104448 O.3        1 MOL1        -0.3740
      80    C24     21.582791   24.792115   19.520764 C.3        1 MOL1         0.0138
      81    H38     20.598287   24.675128   19.048822 H          1 MOL1         0.0794
      82    H39     22.339240   24.628339   18.741568 H          1 MOL1         0.0794
      83    O20     21.713213   26.106018   20.070817 O.3        1 MOL1        -0.5486
      84    H40     22.598083   26.139702   20.498095 H          1 MOL1         0.3769
      85    C25     24.799784   17.779231   20.837760 C.3        1 MOL1         0.2972
      86    H41     25.461328   16.961338   20.524519 H          1 MOL1         0.0751
      87    O21     23.476726   17.295487   21.144196 O.3        1 MOL1        -0.3740
      88    C26     25.387919   18.533431   22.062971 C.3        1 MOL1         0.1003
      89    H42     26.360966   18.935602   21.752198 H          1 MOL1         0.0783
      90    O22     25.587102   17.665627   23.189003 O.3        1 MOL1        -0.5519
      91    H43     24.694773   17.327219   23.454923 H          1 MOL1         0.3769
      92    C27     24.488728   19.728417   22.461262 C.3        1 MOL1         0.1053
      93    H44     23.536784   19.327454   22.835484 H          1 MOL1         0.0783
      94    O23     25.137439   20.481376   23.491338 O.3        1 MOL1        -0.5519
      95    H45     25.521924   19.807256   24.096527 H          1 MOL1         0.3769
      96    C28     24.184310   20.635049   21.239795 C.3        1 MOL1         0.1018
      97    H46     25.082289   21.204866   20.965445 H          1 MOL1         0.0783
      98    C29     23.723119   19.815560   20.006549 C.3        1 MOL1         0.1043
      99    H47     22.720574   19.416175   20.201830 H          1 MOL1         0.0783
     100    O24     24.665017   18.739285   19.769035 O.3        1 MOL1        -0.3740
     101    C30     23.663693   20.668018   18.722408 C.3        1 MOL1         0.0138
     102    H48     24.677574   20.995972   18.456863 H          1 MOL1         0.0794
     103    H49     23.061245   21.565798   18.907143 H          1 MOL1         0.0794
     104    O25     23.086777   19.906327   17.660102 O.3        1 MOL1        -0.5486
     105    H50     23.607651   19.075240   17.608551 H          1 MOL1         0.3769
     106    C31     21.304117   13.887022   21.977706 C.3        1 MOL1         0.2972
     107    H51     20.926732   12.892808   22.249806 H          1 MOL1         0.0751
     108    O26     20.285453   14.698229   21.359994 O.3        1 MOL1        -0.3740
     109    C32     21.846838   14.624401   23.229001 C.3        1 MOL1         0.1003
     110    H52     22.689888   14.036247   23.614462 H          1 MOL1         0.0783
     111    O27     20.850686   14.745406   24.256720 O.3        1 MOL1        -0.5519
     112    H53     20.027352   14.312026   23.923359 H          1 MOL1         0.3769
     113    C33     22.374340   16.023355   22.842817 C.3        1 MOL1         0.1053
     114    H54     21.513849   16.623068   22.522237 H          1 MOL1         0.0783
     115    O28     22.988237   16.626448   23.986124 O.3        1 MOL1        -0.5519
     116    H55     22.359280   16.453418   24.722672 H          1 MOL1         0.3769
     117    C34     23.380348   15.955759   21.667019 C.3        1 MOL1         0.1018
     118    H56     24.343262   15.593037   22.050207 H          1 MOL1         0.0783
     119    C35     22.893093   15.035969   20.509577 C.3        1 MOL1         0.1043
     120    H57     22.085493   15.554273   19.975653 H          1 MOL1         0.0783
     121    O29     22.397102   13.779223   21.040438 O.3        1 MOL1        -0.3740
     122    C36     23.992865   14.709424   19.474972 C.3        1 MOL1         0.0138
     123    H58     24.290070   15.634797   18.964192 H          1 MOL1         0.0794
     124    H59     23.573366   14.038173   18.713622 H          1 MOL1         0.0794
     125    O30     25.128560   14.103891   20.098960 O.3        1 MOL1        -0.5486
     126    H60     24.797910   13.295355   20.549996 H          1 MOL1         0.3769
     127    N1      18.726952   19.295129   16.226811 N.4        1 MOL1        -0.5940
     128    H1      17.918571   18.669898   16.285795 H          1 MOL1         0.3649
     129    H2      18.784273   19.626062   15.258857 H          1 MOL1         0.3649
     130    H3      18.516613   20.127048   16.803777 H          1 MOL1         0.3649
     131    C1      20.007427   18.607813   16.659833 C.3        1 MOL1         0.0207
     132    H4      20.822424   19.334757   16.596195 H          1 MOL1         0.0950
     133    H5      20.209283   17.805164   15.945454 H          1 MOL1         0.0950
     134    C2      19.951576   18.016256   18.080525 C.3        1 MOL1        -0.1415
     135    H6      19.132559   17.290253   18.140016 H          1 MOL1         0.0976
     136    H7      20.882575   17.462369   18.260183 H          1 MOL1         0.0976
     137    C3      19.775079   19.097390   19.168639 C.3        1 MOL1        -0.1375
     138    H8      18.784053   19.557877   19.072006 H          1 MOL1         0.0976
     139    H9      20.515293   19.893999   19.008601 H          1 MOL1         0.0976
     140    C4      19.936653   18.522859   20.594102 C.3        1 MOL1        -0.1375
     141    H10     19.159872   17.771811   20.788430 H          1 MOL1         0.0976
     142    H11     20.902283   18.007681   20.674353 H          1 MOL1         0.0976
     143    C5      19.858692   19.638122   21.656914 C.3        1 MOL1        -0.1350
     144    H12     18.865074   20.102136   21.635758 H          1 MOL1         0.0976
     145    H13     20.579853   20.425273   21.404503 H          1 MOL1         0.0976
     146    C6      20.142702   19.117726   23.080879 C.3        1 MOL1        -0.2365
     147    H14     19.492248   18.270142   23.333756 H          1 MOL1         0.0987
     148    H15     19.968441   19.907588   23.822962 H          1 MOL1         0.0987
     149    H16     21.185969   18.794514   23.179542 H          1 MOL1         0.0987
@<TRIPOS>BOND
    1     1     2    1
    2     1     3    1
    3     1     4    1
    4     4     5    1
    5     4     6    1
    6     6     7    1
    7     4     8    1
    8     8     9    1
    9     8    10    1
   10    10    11    1
   11     8    12    1
   12    12    13    1
   13    12    14    1
   14    14    15    1
   15     1    16    1
   16    14    16    1
   17    14    17    1
   18    17    18    1
   19    17    19    1
   20    17    20    1
   21    20    21    1
   22    22    23    1
   23    22    24    1
   24    22    25    1
   25    25    26    1
   26    25    27    1
   27    27    28    1
   28    25    29    1
   29    29    30    1
   30    29    31    1
   31    31    32    1
   32     3    33    1
   33    29    33    1
   34    33    34    1
   35    33    35    1
   36    35    36    1
   37    22    37    1
   38    35    37    1
   39    35    38    1
   40    38    39    1
   41    38    40    1
   42    38    41    1
   43    41    42    1
   44    43    44    1
   45    43    45    1
   46    43    46    1
   47    46    47    1
   48    46    48    1
   49    48    49    1
   50    46    50    1
   51    50    51    1
   52    50    52    1
   53    52    53    1
   54    24    54    1
   55    50    54    1
   56    54    55    1
   57    54    56    1
   58    56    57    1
   59    43    58    1
   60    56    58    1
   61    56    59    1
   62    59    60    1
   63    59    61    1
   64    59    62    1
   65    62    63    1
   66    64    65    1
   67    64    66    1
   68    64    67    1
   69    67    68    1
   70    67    69    1
   71    69    70    1
   72    67    71    1
   73    71    72    1
   74    71    73    1
   75    73    74    1
   76    45    75    1
   77    71    75    1
   78    75    76    1
   79    75    77    1
   80    77    78    1
   81    64    79    1
   82    77    79    1
   83    77    80    1
   84    80    81    1
   85    80    82    1
   86    80    83    1
   87    83    84    1
   88    85    86    1
   89    85    87    1
   90    85    88    1
   91    88    89    1
   92    88    90    1
   93    90    91    1
   94    88    92    1
   95    92    93    1
   96    92    94    1
   97    94    95    1
   98    66    96    1
   99    92    96    1
  100    96    97    1
  101    96    98    1
  102    98    99    1
  103    85   100    1
  104    98   100    1
  105    98   101    1
  106   101   102    1
  107   101   103    1
  108   101   104    1
  109   104   105    1
  110   106   107    1
  111    12   108    1
  112   106   108    1
  113   106   109    1
  114   109   110    1
  115   109   111    1
  116   111   112    1
  117   109   113    1
  118   113   114    1
  119   113   115    1
  120   115   116    1
  121    87   117    1
  122   113   117    1
  123   117   118    1
  124   117   119    1
  125   119   120    1
  126   106   121    1
  127   119   121    1
  128   119   122    1
  129   122   123    1
  130   122   124    1
  131   122   125    1
  132   125   126    1
  133   127   128    1
  134   127   129    1
  135   127   130    1
  136   127   131    1
  137   131   132    1
  138   131   133    1
  139   131   134    1
  140   134   135    1
  141   134   136    1
  142   134   137    1
  143   137   138    1
  144   137   139    1
  145   137   140    1
  146   140   141    1
  147   140   142    1
  148   140   143    1
  149   143   144    1
  150   143   145    1
  151   143   146    1
  152   146   147    1
  153   146   148    1
  154   146   149    1
@<TRIPOS>SUBSTRUCTURE
       1 MOL1            1 RESIDUE      1      MOL     
       2 MOL1          149 RESIDUE      1      MOL     
@<SCITEGIC>MOL_PROPERTY
VM2 Rank
SciTegic.value.IntegerValue
4

@<SCITEGIC>MOL_PROPERTY
Conf_Id
SciTegic.value.IntegerValue
22263

@<SCITEGIC>MOL_PROPERTY
Probability
SciTegic.value.DoubleValue
1.29

@<SCITEGIC>MOL_PROPERTY
Sum Probability
SciTegic.value.DoubleValue
7.27

@<SCITEGIC>MOL_PROPERTY
Delta G
SciTegic.value.DoubleValue
0.331

@<SCITEGIC>MOL_PROPERTY
G
SciTegic.value.DoubleValue
557.478

@<SCITEGIC>MOL_PROPERTY
E
SciTegic.value.DoubleValue
358.719

@<SCITEGIC>MOL_PROPERTY
-TS
SciTegic.value.DoubleValue
198.760

@<SCITEGIC>MOL_PROPERTY
U+W
SciTegic.value.DoubleValue
227.265

@<SCITEGIC>MOL_PROPERTY
U
SciTegic.value.DoubleValue
296.293

@<SCITEGIC>MOL_PROPERTY
W
SciTegic.value.DoubleValue
-69.028

@<SCITEGIC>MOL_PROPERTY
W(PB)
SciTegic.value.DoubleValue
-75.027

@<SCITEGIC>MOL_PROPERTY
W(SA)
SciTegic.value.DoubleValue
5.998

@<SCITEGIC>MOL_PROPERTY
Valence
SciTegic.value.DoubleValue
146.142

@<SCITEGIC>MOL_PROPERTY
Coulomb
SciTegic.value.DoubleValue
174.353

@<SCITEGIC>MOL_PROPERTY
VdW
SciTegic.value.DoubleValue
-24.202

@<SCITEGIC>MOL_PROPERTY
VdW6
SciTegic.value.DoubleValue
-176.782

@<SCITEGIC>MOL_PROPERTY
VdW12
SciTegic.value.DoubleValue
152.580

@<SCITEGIC>MOL_PROPERTY
Bond
SciTegic.value.DoubleValue
4.392

@<SCITEGIC>MOL_PROPERTY
Angle
SciTegic.value.DoubleValue
10.225

@<SCITEGIC>MOL_PROPERTY
Pdih
SciTegic.value.DoubleValue
131.526

@<SCITEGIC>MOL_PROPERTY
Idih
SciTegic.value.DoubleValue
0.000

@<SCITEGIC>MOL_PROPERTY
Tether
SciTegic.value.DoubleValue
0.000

@<TRIPOS>MOLECULE
CD_guest-2_vm2_single.mol2 : vm2 host+ligand conformer 5
         149         154           2
SMALL
USER_CHARGES
 
@<TRIPOS>ATOM
       1    C1      16.270287   15.009283   20.640357 C.3        1 MOL1         0.2972
       2    H1      15.212168   14.905880   20.369503 H          1 MOL1         0.0751
       3    O1      16.630386   16.394704   20.845127 O.3        1 MOL1        -0.3740
       4    C2      16.608780   14.163555   21.896418 C.3        1 MOL1         0.1003
       5    H2      16.450988   13.111493   21.624956 H          1 MOL1         0.0783
       6    O2      15.760034   14.481154   23.008443 O.3        1 MOL1        -0.5519
       7    H3      15.985276   15.405457   23.283464 H          1 MOL1         0.3769
       8    C3      18.098210   14.334858   22.276739 C.3        1 MOL1         0.1053
       9    H4      18.248068   15.373773   22.602094 H          1 MOL1         0.0783
      10    O3      18.416207   13.441448   23.348310 O.3        1 MOL1        -0.5519
      11    H5      17.642207   13.482102   23.954763 H          1 MOL1         0.3769
      12    C4      19.032993   14.070562   21.065744 C.3        1 MOL1         0.1018
      13    H6      19.153253   12.988841   20.919396 H          1 MOL1         0.0783
      14    C5      18.523628   14.705687   19.742179 C.3        1 MOL1         0.1043
      15    H7      18.731050   15.780566   19.781208 H          1 MOL1         0.0783
      16    O4      17.098680   14.498338   19.577089 O.3        1 MOL1        -0.3740
      17    C6      19.234020   14.137569   18.493889 C.3        1 MOL1         0.0138
      18    H8      20.314924   14.307636   18.587875 H          1 MOL1         0.0794
      19    H9      18.887943   14.687703   17.608877 H          1 MOL1         0.0794
      20    O5      18.967009   12.740614   18.342986 O.3        1 MOL1        -0.5486
      21    H10     17.988135   12.647880   18.343643 H          1 MOL1         0.3769
      22    C7      15.080905   20.133807   21.837933 C.3        1 MOL1         0.2972
      23    H11     14.431107   20.956408   22.161966 H          1 MOL1         0.0751
      24    O6      16.285777   20.622022   21.215748 O.3        1 MOL1        -0.3740
      25    C8      15.464115   19.239609   23.045780 C.3        1 MOL1         0.1003
      26    H12     14.527023   18.866262   23.478984 H          1 MOL1         0.0783
      27    O7      16.184168   19.977250   24.046817 O.3        1 MOL1        -0.5519
      28    H13     15.944992   20.928162   23.933024 H          1 MOL1         0.3769
      29    C9      16.303581   18.023565   22.591582 C.3        1 MOL1         0.1053
      30    H14     17.273030   18.396865   22.241755 H          1 MOL1         0.0783
      31    O8      16.495887   17.159533   23.714307 O.3        1 MOL1        -0.5519
      32    H15     16.750855   17.765163   24.446876 H          1 MOL1         0.3769
      33    C10     15.631331   17.263655   21.418488 C.3        1 MOL1         0.1018
      34    H16     14.767912   16.703155   21.801077 H          1 MOL1         0.0783
      35    C11     15.167267   18.231523   20.295832 C.3        1 MOL1         0.1043
      36    H17     16.053598   18.633700   19.786727 H          1 MOL1         0.0783
      37    O9      14.388520   19.305372   20.880457 O.3        1 MOL1        -0.3740
      38    C12     14.278377   17.538670   19.242441 C.3        1 MOL1         0.0138
      39    H18     13.375298   17.146819   19.729406 H          1 MOL1         0.0794
      40    H19     14.822809   16.690256   18.807426 H          1 MOL1         0.0794
      41    O10     13.931124   18.467764   18.214093 O.3        1 MOL1        -0.5486
      42    H20     13.571777   19.259174   18.674510 H          1 MOL1         0.3769
      43    C13     18.418690   24.167551   20.967308 C.3        1 MOL1         0.2972
      44    H21     18.791280   25.181869   20.773869 H          1 MOL1         0.0751
      45    O11     19.476752   23.270897   21.355159 O.3        1 MOL1        -0.3740
      46    C14     17.347292   24.164022   22.085958 C.3        1 MOL1         0.1003
      47    H22     16.505883   24.773758   21.731708 H          1 MOL1         0.0783
      48    O12     17.853870   24.731345   23.304341 O.3        1 MOL1        -0.5519
      49    H23     18.681488   24.240689   23.541103 H          1 MOL1         0.3769
      50    C15     16.824475   22.727052   22.333919 C.3        1 MOL1         0.1053
      51    H24     17.647640   22.134863   22.757597 H          1 MOL1         0.0783
      52    O13     15.744704   22.792155   23.272174 O.3        1 MOL1        -0.5519
      53    H25     16.023416   23.468262   23.931531 H          1 MOL1         0.3769
      54    C16     16.373150   22.046689   21.007344 C.3        1 MOL1         0.1018
      55    H26     15.408346   22.461498   20.686297 H          1 MOL1         0.0783
      56    C17     17.403930   22.238431   19.862811 C.3        1 MOL1         0.1043
      57    H27     18.280332   21.614310   20.072940 H          1 MOL1         0.0783
      58    O14     17.795940   23.630373   19.781525 O.3        1 MOL1        -0.3740
      59    C18     16.839379   21.820080   18.488800 C.3        1 MOL1         0.0138
      60    H28     16.051826   22.524024   18.188417 H          1 MOL1         0.0794
      61    H29     16.382861   20.824435   18.571011 H          1 MOL1         0.0794
      62    O15     17.889463   21.790839   17.519434 O.3        1 MOL1        -0.5486
      63    H30     18.304651   22.680700   17.536727 H          1 MOL1         0.3769
      64    C19     23.449965   22.834145   22.082611 C.3        1 MOL1         0.2972
      65    H31     24.524898   22.890803   22.297850 H          1 MOL1         0.0751
      66    O16     23.070122   21.530139   21.592667 O.3        1 MOL1        -0.3740
      67    C20     22.633367   23.153583   23.359153 C.3        1 MOL1         0.1003
      68    H32     22.869452   24.185830   23.648818 H          1 MOL1         0.0783
      69    O17     22.979774   22.269100   24.436764 O.3        1 MOL1        -0.5519
      70    H33     23.657285   21.638101   24.089265 H          1 MOL1         0.3769
      71    C21     21.118213   23.069303   23.071198 C.3        1 MOL1         0.1053
      72    H34     20.877586   22.014056   22.908510 H          1 MOL1         0.0783
      73    O18     20.388319   23.544647   24.205689 O.3        1 MOL1        -0.5519
      74    H35     20.818371   23.112840   24.977841 H          1 MOL1         0.3769
      75    C22     20.706721   23.865709   21.804983 C.3        1 MOL1         0.1018
      76    H36     20.579490   24.921106   22.080815 H          1 MOL1         0.0783
      77    C23     21.709194   23.734501   20.621408 C.3        1 MOL1         0.1043
      78    H37     21.540642   22.760142   20.145131 H          1 MOL1         0.0783
      79    O19     23.079217   23.810658   21.088675 O.3        1 MOL1        -0.3740
      80    C24     21.519066   24.815080   19.534074 C.3        1 MOL1         0.0138
      81    H38     20.526662   24.695977   19.079585 H          1 MOL1         0.0794
      82    H39     22.261956   24.653274   18.741531 H          1 MOL1         0.0794
      83    O20     21.656222   26.129134   20.082047 O.3        1 MOL1        -0.5486
      84    H40     22.548504   26.164844   20.493460 H          1 MOL1         0.3769
      85    C25     24.772955   17.811482   20.781267 C.3        1 MOL1         0.2972
      86    H41     25.433670   16.999307   20.451835 H          1 MOL1         0.0751
      87    O21     23.460531   17.317672   21.114489 O.3        1 MOL1        -0.3740
      88    C26     25.380168   18.564828   21.997539 C.3        1 MOL1         0.1003
      89    H42     26.345812   18.971949   21.670557 H          1 MOL1         0.0783
      90    O22     25.602571   17.694050   23.117049 O.3        1 MOL1        -0.5519
      91    H43     24.717548   17.344797   23.393272 H          1 MOL1         0.3769
      92    C27     24.483335   19.754682   22.416021 C.3        1 MOL1         0.1053
      93    H44     23.540304   19.348479   22.807023 H          1 MOL1         0.0783
      94    O23     25.147949   20.507776   23.435814 O.3        1 MOL1        -0.5519
      95    H45     25.545948   19.833739   24.032287 H          1 MOL1         0.3769
      96    C28     24.151747   20.662887   21.202855 C.3        1 MOL1         0.1018
      97    H46     25.042905   21.234116   20.909821 H          1 MOL1         0.0783
      98    C29     23.665592   19.843415   19.979231 C.3        1 MOL1         0.1043
      99    H47     22.670315   19.438391   20.197814 H          1 MOL1         0.0783
     100    O24     24.608160   18.773196   19.718196 O.3        1 MOL1        -0.3740
     101    C30     23.569925   20.695979   18.697313 C.3        1 MOL1         0.0138
     102    H48     24.575314   21.028051   18.405875 H          1 MOL1         0.0794
     103    H49     22.969039   21.591259   18.897575 H          1 MOL1         0.0794
     104    O25     22.968558   19.932271   17.649896 O.3        1 MOL1        -0.5486
     105    H50     23.497661   19.108229   17.577920 H          1 MOL1         0.3769
     106    C31     21.317800   13.893667   21.937977 C.3        1 MOL1         0.2972
     107    H51     20.944956   12.895415   22.201479 H          1 MOL1         0.0751
     108    O26     20.288274   14.714815   21.351268 O.3        1 MOL1        -0.3740
     109    C32     21.879608   14.612452   23.191242 C.3        1 MOL1         0.1003
     110    H52     22.729306   14.019966   23.554824 H          1 MOL1         0.0783
     111    O27     20.898460   14.716275   24.235250 O.3        1 MOL1        -0.5519
     112    H53     20.064764   14.304728   23.899491 H          1 MOL1         0.3769
     113    C33     22.399037   16.017735   22.816806 C.3        1 MOL1         0.1053
     114    H54     21.532037   16.620287   22.520478 H          1 MOL1         0.0783
     115    O28     23.032526   16.605614   23.957380 O.3        1 MOL1        -0.5519
     116    H55     22.417840   16.420590   24.702943 H          1 MOL1         0.3769
     117    C34     23.383988   15.971028   21.622222 C.3        1 MOL1         0.1018
     118    H56     24.356294   15.611127   21.983803 H          1 MOL1         0.0783
     119    C35     22.882819   15.063198   20.461423 C.3        1 MOL1         0.1043
     120    H57     22.066166   15.585298   19.945648 H          1 MOL1         0.0783
     121    O29     22.397526   13.799784   20.984246 O.3        1 MOL1        -0.3740
     122    C36     23.967878   14.750923   19.407040 C.3        1 MOL1         0.0138
     123    H58     24.253523   15.682107   18.900297 H          1 MOL1         0.0794
     124    H59     23.539303   14.084791   18.646205 H          1 MOL1         0.0794
     125    O30     25.115481   14.144297   20.007674 O.3        1 MOL1        -0.5486
     126    H60     24.795143   13.329520   20.454931 H          1 MOL1         0.3769
     127    N1      20.021649   17.877045   15.598357 N.4        1 MOL1        -0.5940
     128    H1      20.948578   17.441242   15.627794 H          1 MOL1         0.3649
     129    H2      19.951545   18.367503   14.700663 H          1 MOL1         0.3649
     130    H3      19.327145   17.124140   15.583658 H          1 MOL1         0.3649
     131    C1      19.810298   18.820543   16.764641 C.3        1 MOL1         0.0207
     132    H4      18.824023   19.281729   16.657791 H          1 MOL1         0.0950
     133    H5      20.565298   19.609803   16.700675 H          1 MOL1         0.0950
     134    C2      19.913080   18.125014   18.132833 C.3        1 MOL1        -0.1415
     135    H6      19.169835   17.321271   18.192037 H          1 MOL1         0.0976
     136    H7      20.906950   17.669411   18.236873 H          1 MOL1         0.0976
     137    C3      19.680973   19.135425   19.273394 C.3        1 MOL1        -0.1375
     138    H8      18.656771   19.524981   19.206208 H          1 MOL1         0.0976
     139    H9      20.356163   19.991675   19.132608 H          1 MOL1         0.0976
     140    C4      19.909815   18.525336   20.674135 C.3        1 MOL1        -0.1375
     141    H10     19.162775   17.746342   20.874301 H          1 MOL1         0.0976
     142    H11     20.892968   18.039595   20.709697 H          1 MOL1         0.0976
     143    C5      19.834261   19.615168   21.763652 C.3        1 MOL1        -0.1350
     144    H12     18.835648   20.069407   21.766854 H          1 MOL1         0.0976
     145    H13     20.542572   20.415295   21.516484 H          1 MOL1         0.0976
     146    C6      20.147555   19.071372   23.172175 C.3        1 MOL1        -0.2365
     147    H14     19.508091   18.214205   23.420934 H          1 MOL1         0.0987
     148    H15     19.980177   19.847239   23.930525 H          1 MOL1         0.0987
     149    H16     21.195194   18.756106   23.247055 H          1 MOL1         0.0987
@<TRIPOS>BOND
    1     1     2    1
    2     1     3    1
    3     1     4    1
    4     4     5    1
    5     4     6    1
    6     6     7    1
    7     4     8    1
    8     8     9    1
    9     8    10    1
   10    10    11    1
   11     8    12    1
   12    12    13    1
   13    12    14    1
   14    14    15    1
   15     1    16    1
   16    14    16    1
   17    14    17    1
   18    17    18    1
   19    17    19    1
   20    17    20    1
   21    20    21    1
   22    22    23    1
   23    22    24    1
   24    22    25    1
   25    25    26    1
   26    25    27    1
   27    27    28    1
   28    25    29    1
   29    29    30    1
   30    29    31    1
   31    31    32    1
   32     3    33    1
   33    29    33    1
   34    33    34    1
   35    33    35    1
   36    35    36    1
   37    22    37    1
   38    35    37    1
   39    35    38    1
   40    38    39    1
   41    38    40    1
   42    38    41    1
   43    41    42    1
   44    43    44    1
   45    43    45    1
   46    43    46    1
   47    46    47    1
   48    46    48    1
   49    48    49    1
   50    46    50    1
   51    50    51    1
   52    50    52    1
   53    52    53    1
   54    24    54    1
   55    50    54    1
   56    54    55    1
   57    54    56    1
   58    56    57    1
   59    43    58    1
   60    56    58    1
   61    56    59    1
   62    59    60    1
   63    59    61    1
   64    59    62    1
   65    62    63    1
   66    64    65    1
   67    64    66    1
   68    64    67    1
   69    67    68    1
   70    67    69    1
   71    69    70    1
   72    67    71    1
   73    71    72    1
   74    71    73    1
   75    73    74    1
   76    45    75    1
   77    71    75    1
   78    75    76    1
   79    75    77    1
   80    77    78    1
   81    64    79    1
   82    77    79    1
   83    77    80    1
   84    80    81    1
   85    80    82    1
   86    80    83    1
   87    83    84    1
   88    85    86    1
   89    85    87    1
   90    85    88    1
   91    88    89    1
   92    88    90    1
   93    90    91    1
   94    88    92    1
   95    92    93    1
   96    92    94    1
   97    94    95    1
   98    66    96    1
   99    92    96    1
  100    96    97    1
  101    96    98    1
  102    98    99    1
  103    85   100    1
  104    98   100    1
  105    98   101    1
  106   101   102    1
  107   101   103    1
  108   101   104    1
  109   104   105    1
  110   106   107    1
  111    12   108    1
  112   106   108    1
  113   106   109    1
  114   109   110    1
  115   109   111    1
  116   111   112    1
  117   109   113    1
  118   113   114    1
  119   113   115    1
  120   115   116    1
  121    87   117    1
  122   113   117    1
  123   117   118    1
  124   117   119    1
  125   119   120    1
  126   106   121    1
  127   119   121    1
  128   119   122    1
  129   122   123    1
  130   122   124    1
  131   122   125    1
  132   125   126    1
  133   127   128    1
  134   127   129    1
  135   127   130    1
  136   127   131    1
  137   131   132    1
  138   131   133    1
  139   131   134    1
  140   134   135    1
  141   134   136    1
  142   134   137    1
  143   137   138    1
  144   137   139    1
  145   137   140    1
  146   140   141    1
  147   140   142    1
  148   140   143    1
  149   143   144    1
  150   143   145    1
  151   143   146    1
  152   146   147    1
  153   146   148    1
  154   146   149    1
@<TRIPOS>SUBSTRUCTURE
       1 MOL1            1 RESIDUE      1      MOL     
       2 MOL1          149 RESIDUE      1      MOL     
@<SCITEGIC>MOL_PROPERTY
VM2 Rank
SciTegic.value.IntegerValue
5

@<SCITEGIC>MOL_PROPERTY
Conf_Id
SciTegic.value.IntegerValue
24277

@<SCITEGIC>MOL_PROPERTY
Probability
SciTegic.value.DoubleValue
1.19

@<SCITEGIC>MOL_PROPERTY
Sum Probability
SciTegic.value.DoubleValue
8.46

@<SCITEGIC>MOL_PROPERTY
Delta G
SciTegic.value.DoubleValue
0.376

@<SCITEGIC>MOL_PROPERTY
G
SciTegic.value.DoubleValue
557.523

@<SCITEGIC>MOL_PROPERTY
E
SciTegic.value.DoubleValue
361.036

@<SCITEGIC>MOL_PROPERTY
-TS
SciTegic.value.DoubleValue
196.487

@<SCITEGIC>MOL_PROPERTY
U+W
SciTegic.value.DoubleValue
229.582

@<SCITEGIC>MOL_PROPERTY
U
SciTegic.value.DoubleValue
307.553

@<SCITEGIC>MOL_PROPERTY
W
SciTegic.value.DoubleValue
-77.971

@<SCITEGIC>MOL_PROPERTY
W(PB)
SciTegic.value.DoubleValue
-84.072

@<SCITEGIC>MOL_PROPERTY
W(SA)
SciTegic.value.DoubleValue
6.101

@<SCITEGIC>MOL_PROPERTY
Valence
SciTegic.value.DoubleValue
146.343

@<SCITEGIC>MOL_PROPERTY
Coulomb
SciTegic.value.DoubleValue
186.377

@<SCITEGIC>MOL_PROPERTY
VdW
SciTegic.value.DoubleValue
-25.167

@<SCITEGIC>MOL_PROPERTY
VdW6
SciTegic.value.DoubleValue
-173.752

@<SCITEGIC>MOL_PROPERTY
VdW12
SciTegic.value.DoubleValue
148.584

@<SCITEGIC>MOL_PROPERTY
Bond
SciTegic.value.DoubleValue
4.350

@<SCITEGIC>MOL_PROPERTY
Angle
SciTegic.value.DoubleValue
10.215

@<SCITEGIC>MOL_PROPERTY
Pdih
SciTegic.value.DoubleValue
131.778

@<SCITEGIC>MOL_PROPERTY
Idih
SciTegic.value.DoubleValue
0.000

@<SCITEGIC>MOL_PROPERTY
Tether
SciTegic.value.DoubleValue
0.000

@<TRIPOS>MOLECULE
CD_guest-2_vm2_single.mol2 : vm2 host+ligand conformer 6
         149         154           2
SMALL
USER_CHARGES
 
@<TRIPOS>ATOM
       1    C1      16.459618   15.334324   20.556220 C.3        1 MOL1         0.2972
       2    H1      15.437409   15.184415   20.185661 H          1 MOL1         0.0751
       3    O1      16.691131   16.711327   20.913984 O.3        1 MOL1        -0.3740
       4    C2      16.752006   14.412700   21.773329 C.3        1 MOL1         0.1003
       5    H2      16.626127   13.378393   21.427659 H          1 MOL1         0.0783
       6    O2      15.845625   14.648180   22.861368 O.3        1 MOL1        -0.5519
       7    H3      15.987759   15.582067   23.159883 H          1 MOL1         0.3769
       8    C3      18.214789   14.576506   22.250893 C.3        1 MOL1         0.1053
       9    H4      18.328436   15.591105   22.657037 H          1 MOL1         0.0783
      10    O3      18.489988   13.611094   23.271019 O.3        1 MOL1        -0.5519
      11    H5      17.688573   13.606865   23.841952 H          1 MOL1         0.3769
      12    C4      19.211046   14.412812   21.074171 C.3        1 MOL1         0.1018
      13    H6      19.260635   13.357782   20.772819 H          1 MOL1         0.0783
      14    C5      18.801719   15.259769   19.841326 C.3        1 MOL1         0.1043
      15    H7      18.953021   16.320456   20.074550 H          1 MOL1         0.0783
      16    O4      17.411117   14.998018   19.524581 O.3        1 MOL1        -0.3740
      17    C6      19.632410   14.916034   18.587856 C.3        1 MOL1         0.0138
      18    H8      19.416478   13.884018   18.280720 H          1 MOL1         0.0794
      19    H9      20.700546   14.974141   18.829541 H          1 MOL1         0.0794
      20    O5      19.322571   15.829929   17.534074 O.3        1 MOL1        -0.5486
      21    H10     18.347628   15.793807   17.423006 H          1 MOL1         0.3769
      22    C7      14.812219   20.287631   21.740246 C.3        1 MOL1         0.2972
      23    H11     14.133693   21.111498   21.996758 H          1 MOL1         0.0751
      24    O6      16.058623   20.767555   21.197285 O.3        1 MOL1        -0.3740
      25    C8      15.107070   19.416892   22.988845 C.3        1 MOL1         0.1003
      26    H12     14.153255   18.983477   23.316901 H          1 MOL1         0.0783
      27    O7      15.666482   20.188394   24.063636 O.3        1 MOL1        -0.5519
      28    H13     15.704201   21.129390   23.763743 H          1 MOL1         0.3769
      29    C9      16.061216   18.258683   22.624625 C.3        1 MOL1         0.1053
      30    H14     17.031016   18.701069   22.367183 H          1 MOL1         0.0783
      31    O8      16.206672   17.395291   23.756489 O.3        1 MOL1        -0.5519
      32    H15     16.336951   18.006442   24.516451 H          1 MOL1         0.3769
      33    C10     15.556648   17.455973   21.399597 C.3        1 MOL1         0.1018
      34    H16     14.739917   16.797762   21.724091 H          1 MOL1         0.0783
      35    C11     15.068132   18.370141   20.238570 C.3        1 MOL1         0.1043
      36    H17     15.949292   18.815710   19.758366 H          1 MOL1         0.0783
      37    O9      14.211575   19.422021   20.753199 O.3        1 MOL1        -0.3740
      38    C12     14.280953   17.614088   19.145259 C.3        1 MOL1         0.0138
      39    H18     14.952613   16.901942   18.648044 H          1 MOL1         0.0794
      40    H19     13.951131   18.335234   18.385364 H          1 MOL1         0.0794
      41    O10     13.155239   16.926493   19.698213 O.3        1 MOL1        -0.5486
      42    H20     12.603656   17.609956   20.139978 H          1 MOL1         0.3769
      43    C13     18.387242   24.091591   20.685972 C.3        1 MOL1         0.2972
      44    H21     18.855920   25.058459   20.461181 H          1 MOL1         0.0751
      45    O11     19.377764   23.066771   20.923990 O.3        1 MOL1        -0.3740
      46    C14     17.426008   24.202000   21.899466 C.3        1 MOL1         0.1003
      47    H22     16.618724   24.886218   21.607104 H          1 MOL1         0.0783
      48    O12     18.078014   24.730998   23.063068 O.3        1 MOL1        -0.5519
      49    H23     18.755361   24.063103   23.338892 H          1 MOL1         0.3769
      50    C15     16.791586   22.826460   22.213157 C.3        1 MOL1         0.1053
      51    H24     17.589469   22.159383   22.568629 H          1 MOL1         0.0783
      52    O13     15.804554   22.988382   23.236722 O.3        1 MOL1        -0.5519
      53    H25     16.202063   23.620739   23.877708 H          1 MOL1         0.3769
      54    C16     16.153857   22.183311   20.951889 C.3        1 MOL1         0.1018
      55    H26     15.168792   22.631422   20.765303 H          1 MOL1         0.0783
      56    C17     17.025594   22.331082   19.673983 C.3        1 MOL1         0.1043
      57    H27     17.842875   21.604136   19.735402 H          1 MOL1         0.0783
      58    O14     17.579461   23.666121   19.570013 O.3        1 MOL1        -0.3740
      59    C18     16.238951   22.040979   18.376778 C.3        1 MOL1         0.0138
      60    H28     15.831394   21.022268   18.424847 H          1 MOL1         0.0794
      61    H29     16.932377   22.080533   17.526340 H          1 MOL1         0.0794
      62    O15     15.181044   22.986329   18.195887 O.3        1 MOL1        -0.5486
      63    H30     15.598537   23.875419   18.241212 H          1 MOL1         0.3769
      64    C19     23.353299   22.510249   22.021168 C.3        1 MOL1         0.2972
      65    H31     24.381584   22.645672   22.379148 H          1 MOL1         0.0751
      66    O16     23.184164   21.239576   21.361360 O.3        1 MOL1        -0.3740
      67    C20     22.352006   22.601535   23.203355 C.3        1 MOL1         0.1003
      68    H32     22.483540   23.591020   23.660340 H          1 MOL1         0.0783
      69    O17     22.600585   21.589657   24.192683 O.3        1 MOL1        -0.5519
      70    H33     23.547117   21.324294   24.103498 H          1 MOL1         0.3769
      71    C21     20.893396   22.491312   22.703803 C.3        1 MOL1         0.1053
      72    H34     20.743884   21.475254   22.320749 H          1 MOL1         0.0783
      73    O18     20.011751   22.727284   23.804976 O.3        1 MOL1        -0.5519
      74    H35     20.386353   22.187129   24.537193 H          1 MOL1         0.3769
      75    C22     20.606834   23.485294   21.550883 C.3        1 MOL1         0.1018
      76    H36     20.531710   24.498396   21.967681 H          1 MOL1         0.0783
      77    C23     21.712563   23.446608   20.459990 C.3        1 MOL1         0.1043
      78    H37     21.633768   22.493175   19.920724 H          1 MOL1         0.0783
      79    O19     23.019320   23.551057   21.077711 O.3        1 MOL1        -0.3740
      80    C24     21.588888   24.583980   19.421567 C.3        1 MOL1         0.0138
      81    H38     20.653390   24.455977   18.860857 H          1 MOL1         0.0794
      82    H39     22.414615   24.497706   18.702636 H          1 MOL1         0.0794
      83    O20     21.612324   25.867181   20.053523 O.3        1 MOL1        -0.5486
      84    H40     22.456884   25.912307   20.554754 H          1 MOL1         0.3769
      85    C25     25.148798   17.596234   21.126095 C.3        1 MOL1         0.2972
      86    H41     25.836445   16.760422   20.942701 H          1 MOL1         0.0751
      87    O21     23.827537   17.140567   21.471795 O.3        1 MOL1        -0.3740
      88    C26     25.656426   18.500700   22.275914 C.3        1 MOL1         0.1003
      89    H42     26.624121   18.913711   21.962540 H          1 MOL1         0.0783
      90    O22     25.836892   17.754891   23.490336 O.3        1 MOL1        -0.5519
      91    H43     24.991019   17.272136   23.672887 H          1 MOL1         0.3769
      92    C27     24.683918   19.684018   22.508610 C.3        1 MOL1         0.1053
      93    H44     23.740945   19.276126   22.898738 H          1 MOL1         0.0783
      94    O23     25.266112   20.564176   23.476508 O.3        1 MOL1        -0.5519
      95    H45     25.681786   19.968465   24.141343 H          1 MOL1         0.3769
      96    C28     24.371031   20.438469   21.182041 C.3        1 MOL1         0.1018
      97    H46     25.230280   21.060008   20.896815 H          1 MOL1         0.0783
      98    C29     24.045434   19.470444   20.013093 C.3        1 MOL1         0.1043
      99    H47     23.054739   19.034029   20.185475 H          1 MOL1         0.0783
     100    O24     25.042421   18.422591   19.948037 O.3        1 MOL1        -0.3740
     101    C30     24.019661   20.189432   18.648011 C.3        1 MOL1         0.0138
     102    H48     25.037646   20.504793   18.382795 H          1 MOL1         0.0794
     103    H49     23.400394   21.092909   18.725953 H          1 MOL1         0.0794
     104    O25     23.481573   19.321047   17.648370 O.3        1 MOL1        -0.5486
     105    H50     24.033462   18.508914   17.663444 H          1 MOL1         0.3769
     106    C31     21.422387   13.894245   21.976968 C.3        1 MOL1         0.2972
     107    H51     20.931989   12.924850   22.134379 H          1 MOL1         0.0751
     108    O26     20.489044   14.898935   21.525325 O.3        1 MOL1        -0.3740
     109    C32     22.084199   14.374144   23.292270 C.3        1 MOL1         0.1003
     110    H52     22.857375   13.640980   23.556723 H          1 MOL1         0.0783
     111    O27     21.125023   14.456094   24.358563 O.3        1 MOL1        -0.5519
     112    H53     20.236109   14.272599   23.965461 H          1 MOL1         0.3769
     113    C33     22.770473   15.742569   23.087659 C.3        1 MOL1         0.1053
     114    H54     21.979766   16.485145   22.940899 H          1 MOL1         0.0783
     115    O28     23.520614   16.083635   24.257162 O.3        1 MOL1        -0.5519
     116    H55     22.915997   15.887699   25.007842 H          1 MOL1         0.3769
     117    C34     23.696130   15.757339   21.843682 C.3        1 MOL1         0.1018
     118    H56     24.659022   15.309643   22.123512 H          1 MOL1         0.0783
     119    C35     23.100981   15.026701   20.605005 C.3        1 MOL1         0.1043
     120    H57     22.346379   15.688242   20.160787 H          1 MOL1         0.0783
     121    O29     22.466959   13.781061   20.990228 O.3        1 MOL1        -0.3740
     122    C36     24.142810   14.728209   19.500415 C.3        1 MOL1         0.0138
     123    H58     24.426196   15.676036   19.023251 H          1 MOL1         0.0794
     124    H59     23.667763   14.105663   18.730373 H          1 MOL1         0.0794
     125    O30     25.309524   14.076886   20.018184 O.3        1 MOL1        -0.5486
     126    H60     25.887064   13.849827   19.256836 H          1 MOL1         0.3769
     127    N1      19.096683   19.383076   15.572740 N.4        1 MOL1        -0.5940
     128    H1      18.272263   18.774505   15.571605 H          1 MOL1         0.3649
     129    H2      19.589964   19.217492   14.689249 H          1 MOL1         0.3649
     130    H3      18.764866   20.352025   15.554141 H          1 MOL1         0.3649
     131    C1      19.989069   19.111452   16.766363 C.3        1 MOL1         0.0207
     132    H4      20.867911   19.758572   16.691652 H          1 MOL1         0.0950
     133    H5      20.324275   18.071730   16.706212 H          1 MOL1         0.0950
     134    C2      19.285333   19.344009   18.114308 C.3        1 MOL1        -0.1415
     135    H6      18.933534   20.380672   18.170870 H          1 MOL1         0.0976
     136    H7      18.406033   18.689609   18.184391 H          1 MOL1         0.0976
     137    C3      20.245083   19.052767   19.284765 C.3        1 MOL1        -0.1375
     138    H8      21.086485   19.756909   19.246295 H          1 MOL1         0.0976
     139    H9      20.667351   18.045914   19.155036 H          1 MOL1         0.0976
     140    C4      19.555771   19.148097   20.663907 C.3        1 MOL1        -0.1375
     141    H10     19.245026   20.182345   20.861518 H          1 MOL1         0.0976
     142    H11     18.644787   18.537036   20.663630 H          1 MOL1         0.0976
     143    C5      20.499312   18.662164   21.783555 C.3        1 MOL1        -0.1350
     144    H12     21.390703   19.300518   21.823148 H          1 MOL1         0.0976
     145    H13     20.847610   17.650844   21.541315 H          1 MOL1         0.0976
     146    C6      19.820820   18.651739   23.168288 C.3        1 MOL1        -0.2365
     147    H14     20.547430   18.398208   23.951128 H          1 MOL1         0.0987
     148    H15     19.018162   17.905364   23.206608 H          1 MOL1         0.0987
     149    H16     19.393262   19.633531   23.410951 H          1 MOL1         0.0987
@<TRIPOS>BOND
    1     1     2    1
    2     1     3    1
    3     1     4    1
    4     4     5    1
    5     4     6    1
    6     6     7    1
    7     4     8    1
    8     8     9    1
    9     8    10    1
   10    10    11    1
   11     8    12    1
   12    12    13    1
   13    12    14    1
   14    14    15    1
   15     1    16    1
   16    14    16    1
   17    14    17    1
   18    17    18    1
   19    17    19    1
   20    17    20    1
   21    20    21    1
   22    22    23    1
   23    22    24    1
   24    22    25    1
   25    25    26    1
   26    25    27    1
   27    27    28    1
   28    25    29    1
   29    29    30    1
   30    29    31    1
   31    31    32    1
   32     3    33    1
   33    29    33    1
   34    33    34    1
   35    33    35    1
   36    35    36    1
   37    22    37    1
   38    35    37    1
   39    35    38    1
   40    38    39    1
   41    38    40    1
   42    38    41    1
   43    41    42    1
   44    43    44    1
   45    43    45    1
   46    43    46    1
   47    46    47    1
   48    46    48    1
   49    48    49    1
   50    46    50    1
   51    50    51    1
   52    50    52    1
   53    52    53    1
   54    24    54    1
   55    50    54    1
   56    54    55    1
   57    54    56    1
   58    56    57    1
   59    43    58    1
   60    56    58    1
   61    56    59    1
   62    59    60    1
   63    59    61    1
   64    59    62    1
   65    62    63    1
   66    64    65    1
   67    64    66    1
   68    64    67    1
   69    67    68    1
   70    67    69    1
   71    69    70    1
   72    67    71    1
   73    71    72    1
   74    71    73    1
   75    73    74    1
   76    45    75    1
   77    71    75    1
   78    75    76    1
   79    75    77    1
   80    77    78    1
   81    64    79    1
   82    77    79    1
   83    77    80    1
   84    80    81    1
   85    80    82    1
   86    80    83    1
   87    83    84    1
   88    85    86    1
   89    85    87    1
   90    85    88    1
   91    88    89    1
   92    88    90    1
   93    90    91    1
   94    88    92    1
   95    92    93    1
   96    92    94    1
   97    94    95    1
   98    66    96    1
   99    92    96    1
  100    96    97    1
  101    96    98    1
  102    98    99    1
  103    85   100    1
  104    98   100    1
  105    98   101    1
  106   101   102    1
  107   101   103    1
  108   101   104    1
  109   104   105    1
  110   106   107    1
  111    12   108    1
  112   106   108    1
  113   106   109    1
  114   109   110    1
  115   109   111    1
  116   111   112    1
  117   109   113    1
  118   113   114    1
  119   113   115    1
  120   115   116    1
  121    87   117    1
  122   113   117    1
  123   117   118    1
  124   117   119    1
  125   119   120    1
  126   106   121    1
  127   119   121    1
  128   119   122    1
  129   122   123    1
  130   122   124    1
  131   122   125    1
  132   125   126    1
  133   127   128    1
  134   127   129    1
  135   127   130    1
  136   127   131    1
  137   131   132    1
  138   131   133    1
  139   131   134    1
  140   134   135    1
  141   134   136    1
  142   134   137    1
  143   137   138    1
  144   137   139    1
  145   137   140    1
  146   140   141    1
  147   140   142    1
  148   140   143    1
  149   143   144    1
  150   143   145    1
  151   143   146    1
  152   146   147    1
  153   146   148    1
  154   146   149    1
@<TRIPOS>SUBSTRUCTURE
       1 MOL1            1 RESIDUE      1      MOL     
       2 MOL1          149 RESIDUE      1      MOL     
@<SCITEGIC>MOL_PROPERTY
VM2 Rank
SciTegic.value.IntegerValue
6

@<SCITEGIC>MOL_PROPERTY
Conf_Id
SciTegic.value.IntegerValue
14621

@<SCITEGIC>MOL_PROPERTY
Probability
SciTegic.value.DoubleValue
1.09

@<SCITEGIC>MOL_PROPERTY
Sum Probability
SciTegic.value.DoubleValue
9.55

@<SCITEGIC>MOL_PROPERTY
Delta G
SciTegic.value.DoubleValue
0.429

@<SCITEGIC>MOL_PROPERTY
G
SciTegic.value.DoubleValue
557.576

@<SCITEGIC>MOL_PROPERTY
E
SciTegic.value.DoubleValue
361.088

@<SCITEGIC>MOL_PROPERTY
-TS
SciTegic.value.DoubleValue
196.488

@<SCITEGIC>MOL_PROPERTY
U+W
SciTegic.value.DoubleValue
229.634

@<SCITEGIC>MOL_PROPERTY
U
SciTegic.value.DoubleValue
309.622

@<SCITEGIC>MOL_PROPERTY
W
SciTegic.value.DoubleValue
-79.988

@<SCITEGIC>MOL_PROPERTY
W(PB)
SciTegic.value.DoubleValue
-86.108

@<SCITEGIC>MOL_PROPERTY
W(SA)
SciTegic.value.DoubleValue
6.120

@<SCITEGIC>MOL_PROPERTY
Valence
SciTegic.value.DoubleValue
145.477

@<SCITEGIC>MOL_PROPERTY
Coulomb
SciTegic.value.DoubleValue
189.164

@<SCITEGIC>MOL_PROPERTY
VdW
SciTegic.value.DoubleValue
-25.019

@<SCITEGIC>MOL_PROPERTY
VdW6
SciTegic.value.DoubleValue
-174.222

@<SCITEGIC>MOL_PROPERTY
VdW12
SciTegic.value.DoubleValue
149.202

@<SCITEGIC>MOL_PROPERTY
Bond
SciTegic.value.DoubleValue
4.374

@<SCITEGIC>MOL_PROPERTY
Angle
SciTegic.value.DoubleValue
10.259

@<SCITEGIC>MOL_PROPERTY
Pdih
SciTegic.value.DoubleValue
130.845

@<SCITEGIC>MOL_PROPERTY
Idih
SciTegic.value.DoubleValue
0.000

@<SCITEGIC>MOL_PROPERTY
Tether
SciTegic.value.DoubleValue
0.000

@<TRIPOS>MOLECULE
CD_guest-2_vm2_single.mol2 : vm2 host+ligand conformer 7
         149         154           2
SMALL
USER_CHARGES
 
@<TRIPOS>ATOM
       1    C1      16.463274   15.328388   20.512845 C.3        1 MOL1         0.2972
       2    H1      15.444202   15.201614   20.125278 H          1 MOL1         0.0751
       3    O1      16.712316   16.696507   20.895464 O.3        1 MOL1        -0.3740
       4    C2      16.722970   14.384609   21.719949 C.3        1 MOL1         0.1003
       5    H2      16.603630   13.356494   21.354083 H          1 MOL1         0.0783
       6    O2      15.792221   14.602783   22.790599 O.3        1 MOL1        -0.5519
       7    H3      15.939439   15.526076   23.117742 H          1 MOL1         0.3769
       8    C3      18.175377   14.540741   22.229012 C.3        1 MOL1         0.1053
       9    H4      18.286460   15.554254   22.639093 H          1 MOL1         0.0783
      10    O3      18.431113   13.572935   23.251958 O.3        1 MOL1        -0.5519
      11    H5      17.622382   13.572132   23.812122 H          1 MOL1         0.3769
      12    C4      19.192043   14.372595   21.071889 C.3        1 MOL1         0.1018
      13    H6      19.242483   13.315819   20.776847 H          1 MOL1         0.0783
      14    C5      18.817143   15.215964   19.824551 C.3        1 MOL1         0.1043
      15    H7      18.990905   16.274712   20.048435 H          1 MOL1         0.0783
      16    O4      17.424249   14.986126   19.490320 O.3        1 MOL1        -0.3740
      17    C6      19.660411   14.834903   18.588445 C.3        1 MOL1         0.0138
      18    H8      19.438040   13.797608   18.304490 H          1 MOL1         0.0794
      19    H9      20.725439   14.885821   18.844197 H          1 MOL1         0.0794
      20    O5      19.378496   15.722360   17.503761 O.3        1 MOL1        -0.5486
      21    H10     18.408817   15.658677   17.354468 H          1 MOL1         0.3769
      22    C7      14.847486   20.273578   21.819125 C.3        1 MOL1         0.2972
      23    H11     14.158649   21.081716   22.097306 H          1 MOL1         0.0751
      24    O6      16.099094   20.785605   21.320622 O.3        1 MOL1        -0.3740
      25    C8      15.127152   19.360947   23.040636 C.3        1 MOL1         0.1003
      26    H12     14.167742   18.924185   23.347213 H          1 MOL1         0.0783
      27    O7      15.679935   20.101249   24.140901 O.3        1 MOL1        -0.5519
      28    H13     15.741662   21.046880   23.859348 H          1 MOL1         0.3769
      29    C9      16.078260   18.206486   22.653893 C.3        1 MOL1         0.1053
      30    H14     17.057132   18.648370   22.436567 H          1 MOL1         0.0783
      31    O8      16.193871   17.305410   23.758970 O.3        1 MOL1        -0.5519
      32    H15     16.321299   17.889180   24.540586 H          1 MOL1         0.3769
      33    C10     15.587597   17.451438   21.390979 C.3        1 MOL1         0.1018
      34    H16     14.749937   16.800950   21.675255 H          1 MOL1         0.0783
      35    C11     15.141257   18.414445   20.253570 C.3        1 MOL1         0.1043
      36    H17     16.039265   18.874602   19.820961 H          1 MOL1         0.0783
      37    O9      14.272076   19.447676   20.784391 O.3        1 MOL1        -0.3740
      38    C12     14.387289   17.706994   19.105747 C.3        1 MOL1         0.0138
      39    H18     15.071008   17.008613   18.605281 H          1 MOL1         0.0794
      40    H19     14.088899   18.458832   18.362841 H          1 MOL1         0.0794
      41    O10     13.238736   17.007990   19.593604 O.3        1 MOL1        -0.5486
      42    H20     12.678273   17.677970   20.044686 H          1 MOL1         0.3769
      43    C13     18.316822   24.192096   20.814220 C.3        1 MOL1         0.2972
      44    H21     18.752478   25.175244   20.593624 H          1 MOL1         0.0751
      45    O11     19.337074   23.190660   21.019315 O.3        1 MOL1        -0.3740
      46    C14     17.376935   24.251699   22.047331 C.3        1 MOL1         0.1003
      47    H22     16.538979   24.908911   21.780506 H          1 MOL1         0.0783
      48    O12     18.032846   24.791101   23.203519 O.3        1 MOL1        -0.5519
      49    H23     18.755708   24.158662   23.445056 H          1 MOL1         0.3769
      50    C15     16.801061   22.847186   22.350150 C.3        1 MOL1         0.1053
      51    H24     17.630081   22.204723   22.678910 H          1 MOL1         0.0783
      52    O13     15.826647   22.949011   23.393131 O.3        1 MOL1        -0.5519
      53    H25     16.213952   23.575948   24.045384 H          1 MOL1         0.3769
      54    C16     16.164527   22.204952   21.087498 C.3        1 MOL1         0.1018
      55    H26     15.169934   22.637215   20.913588 H          1 MOL1         0.0783
      56    C17     17.016535   22.390429   19.802883 C.3        1 MOL1         0.1043
      57    H27     17.864910   21.697673   19.844796 H          1 MOL1         0.0783
      58    O14     17.498278   23.753900   19.710637 O.3        1 MOL1        -0.3740
      59    C18     16.206138   22.087449   18.525555 C.3        1 MOL1         0.0138
      60    H28     15.414822   22.840210   18.410146 H          1 MOL1         0.0794
      61    H29     15.721819   21.107144   18.628014 H          1 MOL1         0.0794
      62    O15     17.069957   22.086441   17.387321 O.3        1 MOL1        -0.5486
      63    H30     17.545015   22.946612   17.403544 H          1 MOL1         0.3769
      64    C19     23.338747   22.601147   21.922614 C.3        1 MOL1         0.2972
      65    H31     24.387710   22.720925   22.220323 H          1 MOL1         0.0751
      66    O16     23.108774   21.322974   21.292007 O.3        1 MOL1        -0.3740
      67    C20     22.404992   22.738210   23.155739 C.3        1 MOL1         0.1003
      68    H32     22.582430   23.733940   23.582684 H          1 MOL1         0.0783
      69    O17     22.681614   21.743668   24.154611 O.3        1 MOL1        -0.5519
      70    H33     23.626774   21.481660   24.045545 H          1 MOL1         0.3769
      71    C21     20.919385   22.651720   22.739645 C.3        1 MOL1         0.1053
      72    H34     20.724468   21.633252   22.385823 H          1 MOL1         0.0783
      73    O18     20.105724   22.924539   23.883413 O.3        1 MOL1        -0.5519
      74    H35     20.513575   22.392469   24.603910 H          1 MOL1         0.3769
      75    C22     20.587548   23.627088   21.583546 C.3        1 MOL1         0.1018
      76    H36     20.527120   24.648317   21.982739 H          1 MOL1         0.0783
      77    C23     21.638416   23.560555   20.440299 C.3        1 MOL1         0.1043
      78    H37     21.513733   22.606152   19.911629 H          1 MOL1         0.0783
      79    O19     22.977942   23.639160   20.986253 O.3        1 MOL1        -0.3740
      80    C24     21.482718   24.694369   19.402440 C.3        1 MOL1         0.0138
      81    H38     20.514552   24.584683   18.895899 H          1 MOL1         0.0794
      82    H39     22.264858   24.585117   18.639262 H          1 MOL1         0.0794
      83    O20     21.570494   25.980126   20.023514 O.3        1 MOL1        -0.5486
      84    H40     22.441774   26.007669   20.478179 H          1 MOL1         0.3769
      85    C25     25.045626   17.622707   21.150731 C.3        1 MOL1         0.2972
      86    H41     25.745081   16.796676   20.967245 H          1 MOL1         0.0751
      87    O21     23.761876   17.151954   21.596281 O.3        1 MOL1        -0.3740
      88    C26     25.587815   18.576980   22.240991 C.3        1 MOL1         0.1003
      89    H42     26.553787   18.961458   21.888458 H          1 MOL1         0.0783
      90    O22     25.779894   17.877744   23.482284 O.3        1 MOL1        -0.5519
      91    H43     24.954952   17.359598   23.660105 H          1 MOL1         0.3769
      92    C27     24.637817   19.783866   22.450492 C.3        1 MOL1         0.1053
      93    H44     23.712828   19.408985   22.910416 H          1 MOL1         0.0783
      94    O23     25.284112   20.702051   23.339306 O.3        1 MOL1        -0.5519
      95    H45     25.721432   20.133728   24.014299 H          1 MOL1         0.3769
      96    C28     24.259311   20.468960   21.101425 C.3        1 MOL1         0.1018
      97    H46     25.116008   21.041452   20.721905 H          1 MOL1         0.0783
      98    C29     23.840050   19.425976   20.030927 C.3        1 MOL1         0.1043
      99    H47     22.876452   18.992440   20.321765 H          1 MOL1         0.0783
     100    O24     24.849424   18.392115   19.947076 O.3        1 MOL1        -0.3740
     101    C30     23.672941   20.032762   18.623189 C.3        1 MOL1         0.0138
     102    H48     24.640087   20.418883   18.274555 H          1 MOL1         0.0794
     103    H49     22.972657   20.877077   18.671838 H          1 MOL1         0.0794
     104    O25     23.174847   19.032901   17.729302 O.3        1 MOL1        -0.5486
     105    H50     23.833754   18.303830   17.759382 H          1 MOL1         0.3769
     106    C31     21.413002   13.840766   21.936337 C.3        1 MOL1         0.2972
     107    H51     20.940188   12.856400   22.047967 H          1 MOL1         0.0751
     108    O26     20.458072   14.854646   21.558046 O.3        1 MOL1        -0.3740
     109    C32     22.087170   14.258062   23.266395 C.3        1 MOL1         0.1003
     110    H52     22.875987   13.525396   23.481073 H          1 MOL1         0.0783
     111    O27     21.139054   14.263531   24.345464 O.3        1 MOL1        -0.5519
     112    H53     20.239023   14.184127   23.942556 H          1 MOL1         0.3769
     113    C33     22.747631   15.647328   23.125721 C.3        1 MOL1         0.1053
     114    H54     21.940479   16.381910   23.032992 H          1 MOL1         0.0783
     115    O28     23.520111   15.941882   24.294099 O.3        1 MOL1        -0.5519
     116    H55     22.935667   15.706538   25.048917 H          1 MOL1         0.3769
     117    C34     23.650174   15.745325   21.869358 C.3        1 MOL1         0.1018
     118    H56     24.622731   15.293620   22.106300 H          1 MOL1         0.0783
     119    C35     23.041052   15.081039   20.599793 C.3        1 MOL1         0.1043
     120    H57     22.271863   15.756266   20.203035 H          1 MOL1         0.0783
     121    O29     22.441945   13.802149   20.927542 O.3        1 MOL1        -0.3740
     122    C36     24.067837   14.838604   19.470996 C.3        1 MOL1         0.0138
     123    H58     24.437142   15.805122   19.104981 H          1 MOL1         0.0794
     124    H59     23.558848   14.347384   18.630834 H          1 MOL1         0.0794
     125    O30     25.158701   14.034447   19.928372 O.3        1 MOL1        -0.5486
     126    H60     24.764976   13.195132   20.255571 H          1 MOL1         0.3769
     127    N1      20.531430   18.306542   16.627912 N.4        1 MOL1        -0.5940
     128    H1      20.240095   17.339393   16.846409 H          1 MOL1         0.3649
     129    H2      21.414205   18.488241   17.132476 H          1 MOL1         0.3649
     130    H3      20.751261   18.346091   15.628668 H          1 MOL1         0.3649
     131    C1      19.461709   19.307175   17.015198 C.3        1 MOL1         0.0207
     132    H4      18.634965   19.205233   16.307204 H          1 MOL1         0.0950
     133    H5      19.881791   20.310732   16.907568 H          1 MOL1         0.0950
     134    C2      18.926741   19.112096   18.445732 C.3        1 MOL1        -0.1415
     135    H6      18.170862   19.879130   18.640952 H          1 MOL1         0.0976
     136    H7      18.406821   18.147331   18.509165 H          1 MOL1         0.0976
     137    C3      20.036547   19.176639   19.520391 C.3        1 MOL1        -0.1375
     138    H8      20.616130   20.103789   19.413055 H          1 MOL1         0.0976
     139    H9      20.733394   18.341971   19.365030 H          1 MOL1         0.0976
     140    C4      19.453481   19.095331   20.947058 C.3        1 MOL1        -0.1375
     141    H10     18.947549   20.037154   21.200504 H          1 MOL1         0.0976
     142    H11     18.693687   18.308567   20.979619 H          1 MOL1         0.0976
     143    C5      20.534780   18.773056   21.997018 C.3        1 MOL1        -0.1350
     144    H12     21.311377   19.546006   21.991080 H          1 MOL1         0.0976
     145    H13     21.027239   17.831966   21.723982 H          1 MOL1         0.0976
     146    C6      19.942127   18.652919   23.415856 C.3        1 MOL1        -0.2365
     147    H14     19.437586   19.581893   23.713066 H          1 MOL1         0.0987
     148    H15     20.733909   18.450596   24.148836 H          1 MOL1         0.0987
     149    H16     19.213922   17.833256   23.471571 H          1 MOL1         0.0987
@<TRIPOS>BOND
    1     1     2    1
    2     1     3    1
    3     1     4    1
    4     4     5    1
    5     4     6    1
    6     6     7    1
    7     4     8    1
    8     8     9    1
    9     8    10    1
   10    10    11    1
   11     8    12    1
   12    12    13    1
   13    12    14    1
   14    14    15    1
   15     1    16    1
   16    14    16    1
   17    14    17    1
   18    17    18    1
   19    17    19    1
   20    17    20    1
   21    20    21    1
   22    22    23    1
   23    22    24    1
   24    22    25    1
   25    25    26    1
   26    25    27    1
   27    27    28    1
   28    25    29    1
   29    29    30    1
   30    29    31    1
   31    31    32    1
   32     3    33    1
   33    29    33    1
   34    33    34    1
   35    33    35    1
   36    35    36    1
   37    22    37    1
   38    35    37    1
   39    35    38    1
   40    38    39    1
   41    38    40    1
   42    38    41    1
   43    41    42    1
   44    43    44    1
   45    43    45    1
   46    43    46    1
   47    46    47    1
   48    46    48    1
   49    48    49    1
   50    46    50    1
   51    50    51    1
   52    50    52    1
   53    52    53    1
   54    24    54    1
   55    50    54    1
   56    54    55    1
   57    54    56    1
   58    56    57    1
   59    43    58    1
   60    56    58    1
   61    56    59    1
   62    59    60    1
   63    59    61    1
   64    59    62    1
   65    62    63    1
   66    64    65    1
   67    64    66    1
   68    64    67    1
   69    67    68    1
   70    67    69    1
   71    69    70    1
   72    67    71    1
   73    71    72    1
   74    71    73    1
   75    73    74    1
   76    45    75    1
   77    71    75    1
   78    75    76    1
   79    75    77    1
   80    77    78    1
   81    64    79    1
   82    77    79    1
   83    77    80    1
   84    80    81    1
   85    80    82    1
   86    80    83    1
   87    83    84    1
   88    85    86    1
   89    85    87    1
   90    85    88    1
   91    88    89    1
   92    88    90    1
   93    90    91    1
   94    88    92    1
   95    92    93    1
   96    92    94    1
   97    94    95    1
   98    66    96    1
   99    92    96    1
  100    96    97    1
  101    96    98    1
  102    98    99    1
  103    85   100    1
  104    98   100    1
  105    98   101    1
  106   101   102    1
  107   101   103    1
  108   101   104    1
  109   104   105    1
  110   106   107    1
  111    12   108    1
  112   106   108    1
  113   106   109    1
  114   109   110    1
  115   109   111    1
  116   111   112    1
  117   109   113    1
  118   113   114    1
  119   113   115    1
  120   115   116    1
  121    87   117    1
  122   113   117    1
  123   117   118    1
  124   117   119    1
  125   119   120    1
  126   106   121    1
  127   119   121    1
  128   119   122    1
  129   122   123    1
  130   122   124    1
  131   122   125    1
  132   125   126    1
  133   127   128    1
  134   127   129    1
  135   127   130    1
  136   127   131    1
  137   131   132    1
  138   131   133    1
  139   131   134    1
  140   134   135    1
  141   134   136    1
  142   134   137    1
  143   137   138    1
  144   137   139    1
  145   137   140    1
  146   140   141    1
  147   140   142    1
  148   140   143    1
  149   143   144    1
  150   143   145    1
  151   143   146    1
  152   146   147    1
  153   146   148    1
  154   146   149    1
@<TRIPOS>SUBSTRUCTURE
       1 MOL1            1 RESIDUE      1      MOL     
       2 MOL1          149 RESIDUE      1      MOL     
@<SCITEGIC>MOL_PROPERTY
VM2 Rank
SciTegic.value.IntegerValue
7

@<SCITEGIC>MOL_PROPERTY
Conf_Id
SciTegic.value.IntegerValue
9379

@<SCITEGIC>MOL_PROPERTY
Probability
SciTegic.value.DoubleValue
1.06

@<SCITEGIC>MOL_PROPERTY
Sum Probability
SciTegic.value.DoubleValue
10.61

@<SCITEGIC>MOL_PROPERTY
Delta G
SciTegic.value.DoubleValue
0.443

@<SCITEGIC>MOL_PROPERTY
G
SciTegic.value.DoubleValue
557.590

@<SCITEGIC>MOL_PROPERTY
E
SciTegic.value.DoubleValue
358.043

@<SCITEGIC>MOL_PROPERTY
-TS
SciTegic.value.DoubleValue
199.547

@<SCITEGIC>MOL_PROPERTY
U+W
SciTegic.value.DoubleValue
226.589

@<SCITEGIC>MOL_PROPERTY
U
SciTegic.value.DoubleValue
292.689

@<SCITEGIC>MOL_PROPERTY
W
SciTegic.value.DoubleValue
-66.100

@<SCITEGIC>MOL_PROPERTY
W(PB)
SciTegic.value.DoubleValue
-72.061

@<SCITEGIC>MOL_PROPERTY
W(SA)
SciTegic.value.DoubleValue
5.960

@<SCITEGIC>MOL_PROPERTY
Valence
SciTegic.value.DoubleValue
146.617

@<SCITEGIC>MOL_PROPERTY
Coulomb
SciTegic.value.DoubleValue
170.686

@<SCITEGIC>MOL_PROPERTY
VdW
SciTegic.value.DoubleValue
-24.614

@<SCITEGIC>MOL_PROPERTY
VdW6
SciTegic.value.DoubleValue
-178.611

@<SCITEGIC>MOL_PROPERTY
VdW12
SciTegic.value.DoubleValue
153.996

@<SCITEGIC>MOL_PROPERTY
Bond
SciTegic.value.DoubleValue
4.381

@<SCITEGIC>MOL_PROPERTY
Angle
SciTegic.value.DoubleValue
10.092

@<SCITEGIC>MOL_PROPERTY
Pdih
SciTegic.value.DoubleValue
132.144

@<SCITEGIC>MOL_PROPERTY
Idih
SciTegic.value.DoubleValue
0.000

@<SCITEGIC>MOL_PROPERTY
Tether
SciTegic.value.DoubleValue
0.000

@<TRIPOS>MOLECULE
CD_guest-2_vm2_single.mol2 : vm2 host+ligand conformer 8
         149         154           2
SMALL
USER_CHARGES
 
@<TRIPOS>ATOM
       1    C1      16.201846   15.007260   20.565862 C.3        1 MOL1         0.2972
       2    H1      15.146058   14.896988   20.286417 H          1 MOL1         0.0751
       3    O1      16.537790   16.383906   20.843410 O.3        1 MOL1        -0.3740
       4    C2      16.559965   14.118802   21.785944 C.3        1 MOL1         0.1003
       5    H2      16.420347   13.075609   21.473580 H          1 MOL1         0.0783
       6    O2      15.711860   14.378302   22.913939 O.3        1 MOL1        -0.5519
       7    H3      15.896348   15.307168   23.204228 H          1 MOL1         0.3769
       8    C3      18.047328   14.303712   22.172117 C.3        1 MOL1         0.1053
       9    H4      18.171762   15.324521   22.560285 H          1 MOL1         0.0783
      10    O3      18.384132   13.353745   23.188753 O.3        1 MOL1        -0.5519
      11    H5      17.607225   13.340268   23.793044 H          1 MOL1         0.3769
      12    C4      18.989439   14.136983   20.946954 C.3        1 MOL1         0.1018
      13    H6      19.131597   13.069294   20.732323 H          1 MOL1         0.0783
      14    C5      18.462926   14.832936   19.662040 C.3        1 MOL1         0.1043
      15    H7      18.624462   15.912311   19.761956 H          1 MOL1         0.0783
      16    O4      17.050041   14.563578   19.486327 O.3        1 MOL1        -0.3740
      17    C6      19.203645   14.344239   18.397962 C.3        1 MOL1         0.0138
      18    H8      18.969032   13.284920   18.227796 H          1 MOL1         0.0794
      19    H9      20.286787   14.422504   18.562264 H          1 MOL1         0.0794
      20    O5      18.824903   15.130727   17.265032 O.3        1 MOL1        -0.5486
      21    H10     17.843011   15.087925   17.225415 H          1 MOL1         0.3769
      22    C7      15.011906   20.098341   21.820376 C.3        1 MOL1         0.2972
      23    H11     14.389338   20.947909   22.127380 H          1 MOL1         0.0751
      24    O6      16.249354   20.533706   21.221494 O.3        1 MOL1        -0.3740
      25    C8      15.338145   19.196797   23.039557 C.3        1 MOL1         0.1003
      26    H12     14.380598   18.848165   23.447894 H          1 MOL1         0.0783
      27    O7      16.050102   19.919791   24.057148 O.3        1 MOL1        -0.5519
      28    H13     15.849621   20.877254   23.924862 H          1 MOL1         0.3769
      29    C9      16.159295   17.959138   22.609454 C.3        1 MOL1         0.1053
      30    H14     17.150205   18.304090   22.291731 H          1 MOL1         0.0783
      31    O8      16.295467   17.083124   23.731810 O.3        1 MOL1        -0.5519
      32    H15     16.549423   17.675612   24.475138 H          1 MOL1         0.3769
      33    C10     15.510400   17.215860   21.414444 C.3        1 MOL1         0.1018
      34    H16     14.657305   16.628588   21.779230 H          1 MOL1         0.0783
      35    C11     15.049005   18.185639   20.290676 C.3        1 MOL1         0.1043
      36    H17     15.941942   18.568950   19.779251 H          1 MOL1         0.0783
      37    O9      14.302943   19.291130   20.856477 O.3        1 MOL1        -0.3740
      38    C12     14.157368   17.508349   19.226184 C.3        1 MOL1         0.0138
      39    H18     14.744544   16.741828   18.703195 H          1 MOL1         0.0794
      40    H19     13.864151   18.259678   18.480756 H          1 MOL1         0.0794
      41    O10     12.997179   16.919552   19.820896 O.3        1 MOL1        -0.5486
      42    H20     12.530067   17.645423   20.291584 H          1 MOL1         0.3769
      43    C13     18.471253   24.052960   20.971716 C.3        1 MOL1         0.2972
      44    H21     18.831973   25.067602   20.758431 H          1 MOL1         0.0751
      45    O11     19.528680   23.192801   21.436228 O.3        1 MOL1        -0.3740
      46    C14     17.372055   24.072660   22.062389 C.3        1 MOL1         0.1003
      47    H22     16.545233   24.686624   21.682135 H          1 MOL1         0.0783
      48    O12     17.863468   24.650379   23.282849 O.3        1 MOL1        -0.5519
      49    H23     18.740526   24.233276   23.479055 H          1 MOL1         0.3769
      50    C15     16.827013   22.645459   22.322188 C.3        1 MOL1         0.1053
      51    H24     17.632109   22.051641   22.776647 H          1 MOL1         0.0783
      52    O13     15.725842   22.741086   23.232291 O.3        1 MOL1        -0.5519
      53    H25     16.000912   23.421377   23.888983 H          1 MOL1         0.3769
      54    C16     16.403367   21.950150   20.994466 C.3        1 MOL1         0.1018
      55    H26     15.471459   22.394973   20.620842 H          1 MOL1         0.0783
      56    C17     17.496099   22.082649   19.900832 C.3        1 MOL1         0.1043
      57    H27     18.354621   21.463067   20.184412 H          1 MOL1         0.0783
      58    O14     17.899336   23.467618   19.782989 O.3        1 MOL1        -0.3740
      59    C18     17.004445   21.612263   18.516091 C.3        1 MOL1         0.0138
      60    H28     16.237318   22.305728   18.146387 H          1 MOL1         0.0794
      61    H29     16.540218   20.622098   18.612599 H          1 MOL1         0.0794
      62    O15     18.104564   21.541522   17.606505 O.3        1 MOL1        -0.5486
      63    H30     18.510472   22.435343   17.595931 H          1 MOL1         0.3769
      64    C19     23.585991   22.917073   21.951638 C.3        1 MOL1         0.2972
      65    H31     24.667008   23.049005   22.088095 H          1 MOL1         0.0751
      66    O16     23.238044   21.536843   21.714676 O.3        1 MOL1        -0.3740
      67    C20     22.830001   23.406469   23.210984 C.3        1 MOL1         0.1003
      68    H32     23.031640   24.479865   23.321926 H          1 MOL1         0.0783
      69    O17     23.286471   22.715518   24.384585 O.3        1 MOL1        -0.5519
      70    H33     23.728983   21.884182   24.080437 H          1 MOL1         0.3769
      71    C21     21.305849   23.221462   23.034978 C.3        1 MOL1         0.1053
      72    H34     21.105500   22.144940   23.040057 H          1 MOL1         0.0783
      73    O18     20.616162   23.833930   24.128647 O.3        1 MOL1        -0.5519
      74    H35     21.104394   23.541280   24.930567 H          1 MOL1         0.3769
      75    C22     20.798803   23.817844   21.695799 C.3        1 MOL1         0.1018
      76    H36     20.704518   24.905049   21.818526 H          1 MOL1         0.0783
      77    C23     21.719292   23.496404   20.482684 C.3        1 MOL1         0.1043
      78    H37     21.558783   22.447523   20.199354 H          1 MOL1         0.0783
      79    O19     23.111702   23.696304   20.834692 O.3        1 MOL1        -0.3740
      80    C24     21.421886   24.361712   19.237971 C.3        1 MOL1         0.0138
      81    H38     20.407820   24.141174   18.880286 H          1 MOL1         0.0794
      82    H39     22.117909   24.079032   18.436885 H          1 MOL1         0.0794
      83    O20     21.547676   25.755055   19.535934 O.3        1 MOL1        -0.5486
      84    H40     22.461742   25.883010   19.874514 H          1 MOL1         0.3769
      85    C25     24.883210   17.795834   20.960994 C.3        1 MOL1         0.2972
      86    H41     25.533369   16.960460   20.670817 H          1 MOL1         0.0751
      87    O21     23.533029   17.350674   21.203166 O.3        1 MOL1        -0.3740
      88    C26     25.432893   18.519473   22.221030 C.3        1 MOL1         0.1003
      89    H42     26.426622   18.906699   21.960941 H          1 MOL1         0.0783
      90    O22     25.562626   17.632343   23.342068 O.3        1 MOL1        -0.5519
      91    H43     24.652795   17.307886   23.561706 H          1 MOL1         0.3769
      92    C27     24.535569   19.724740   22.588571 C.3        1 MOL1         0.1053
      93    H44     23.554631   19.337822   22.897823 H          1 MOL1         0.0783
      94    O23     25.130183   20.455378   23.665860 O.3        1 MOL1        -0.5519
      95    H45     25.446039   19.770490   24.297230 H          1 MOL1         0.3769
      96    C28     24.325458   20.657984   21.370073 C.3        1 MOL1         0.1018
      97    H46     25.253510   21.209110   21.167392 H          1 MOL1         0.0783
      98    C29     23.918639   19.880430   20.089747 C.3        1 MOL1         0.1043
      99    H47     22.892405   19.516874   20.209766 H          1 MOL1         0.0783
     100    O24     24.834120   18.771394   19.898396 O.3        1 MOL1        -0.3740
     101    C30     23.971364   20.765600   18.824093 C.3        1 MOL1         0.0138
     102    H48     25.018660   20.898250   18.521396 H          1 MOL1         0.0794
     103    H49     23.568387   21.758076   19.060050 H          1 MOL1         0.0794
     104    O25     23.207386   20.181324   17.763728 O.3        1 MOL1        -0.5486
     105    H50     23.330552   20.736950   16.965050 H          1 MOL1         0.3769
     106    C31     21.243195   13.969603   21.897885 C.3        1 MOL1         0.2972
     107    H51     20.859466   12.970787   22.142855 H          1 MOL1         0.0751
     108    O26     20.237078   14.785587   21.264270 O.3        1 MOL1        -0.3740
     109    C32     21.752595   14.680956   23.179644 C.3        1 MOL1         0.1003
     110    H52     22.562849   14.064804   23.590829 H          1 MOL1         0.0783
     111    O27     20.718018   14.816417   24.167025 O.3        1 MOL1        -0.5519
     112    H53     19.954289   14.263544   23.871807 H          1 MOL1         0.3769
     113    C33     22.330847   16.072555   22.841951 C.3        1 MOL1         0.1053
     114    H54     21.494693   16.701584   22.517931 H          1 MOL1         0.0783
     115    O28     22.924218   16.631641   24.017531 O.3        1 MOL1        -0.5519
     116    H55     22.265806   16.462016   24.728694 H          1 MOL1         0.3769
     117    C34     23.369640   16.004678   21.693453 C.3        1 MOL1         0.1018
     118    H56     24.307571   15.597052   22.093304 H          1 MOL1         0.0783
     119    C35     22.883265   15.133267   20.500468 C.3        1 MOL1         0.1043
     120    H57     22.092955   15.682981   19.972511 H          1 MOL1         0.0783
     121    O29     22.358553   13.871175   20.986448 O.3        1 MOL1        -0.3740
     122    C36     23.992972   14.819005   19.472625 C.3        1 MOL1         0.0138
     123    H58     24.316685   15.754913   18.998014 H          1 MOL1         0.0794
     124    H59     23.572783   14.182070   18.682745 H          1 MOL1         0.0794
     125    O30     25.106105   14.170165   20.093985 O.3        1 MOL1        -0.5486
     126    H60     24.751681   13.355055   20.514034 H          1 MOL1         0.3769
     127    N1      20.420099   17.357167   16.124530 N.4        1 MOL1        -0.5940
     128    H1      21.421468   17.144314   16.097128 H          1 MOL1         0.3649
     129    H2      20.129464   17.593168   15.170863 H          1 MOL1         0.3649
     130    H3      19.926077   16.487606   16.387761 H          1 MOL1         0.3649
     131    C1      20.107593   18.468958   17.103574 C.3        1 MOL1         0.0207
     132    H4      19.032921   18.664706   17.052237 H          1 MOL1         0.0950
     133    H5      20.639399   19.372472   16.792107 H          1 MOL1         0.0950
     134    C2      20.496043   18.102825   18.544235 C.3        1 MOL1        -0.1415
     135    H6      20.143155   17.092042   18.767083 H          1 MOL1         0.0976
     136    H7      21.590373   18.082586   18.637921 H          1 MOL1         0.0976
     137    C3      19.894055   19.092345   19.561487 C.3        1 MOL1        -0.1375
     138    H8      18.812617   19.188433   19.391739 H          1 MOL1         0.0976
     139    H9      20.334772   20.086238   19.399346 H          1 MOL1         0.0976
     140    C4      20.143433   18.628305   21.011611 C.3        1 MOL1        -0.1375
     141    H10     19.602345   17.691081   21.203258 H          1 MOL1         0.0976
     142    H11     21.208766   18.414512   21.140728 H          1 MOL1         0.0976
     143    C5      19.726552   19.693574   22.041398 C.3        1 MOL1        -0.1350
     144    H12     18.656695   19.909007   21.948492 H          1 MOL1         0.0976
     145    H13     20.255491   20.626186   21.818339 H          1 MOL1         0.0976
     146    C6      20.036547   19.250769   23.485859 C.3        1 MOL1        -0.2365
     147    H14     21.112737   19.085298   23.626248 H          1 MOL1         0.0987
     148    H15     19.511117   18.318930   23.734016 H          1 MOL1         0.0987
     149    H16     19.716155   20.018746   24.201868 H          1 MOL1         0.0987
@<TRIPOS>BOND
    1     1     2    1
    2     1     3    1
    3     1     4    1
    4     4     5    1
    5     4     6    1
    6     6     7    1
    7     4     8    1
    8     8     9    1
    9     8    10    1
   10    10    11    1
   11     8    12    1
   12    12    13    1
   13    12    14    1
   14    14    15    1
   15     1    16    1
   16    14    16    1
   17    14    17    1
   18    17    18    1
   19    17    19    1
   20    17    20    1
   21    20    21    1
   22    22    23    1
   23    22    24    1
   24    22    25    1
   25    25    26    1
   26    25    27    1
   27    27    28    1
   28    25    29    1
   29    29    30    1
   30    29    31    1
   31    31    32    1
   32     3    33    1
   33    29    33    1
   34    33    34    1
   35    33    35    1
   36    35    36    1
   37    22    37    1
   38    35    37    1
   39    35    38    1
   40    38    39    1
   41    38    40    1
   42    38    41    1
   43    41    42    1
   44    43    44    1
   45    43    45    1
   46    43    46    1
   47    46    47    1
   48    46    48    1
   49    48    49    1
   50    46    50    1
   51    50    51    1
   52    50    52    1
   53    52    53    1
   54    24    54    1
   55    50    54    1
   56    54    55    1
   57    54    56    1
   58    56    57    1
   59    43    58    1
   60    56    58    1
   61    56    59    1
   62    59    60    1
   63    59    61    1
   64    59    62    1
   65    62    63    1
   66    64    65    1
   67    64    66    1
   68    64    67    1
   69    67    68    1
   70    67    69    1
   71    69    70    1
   72    67    71    1
   73    71    72    1
   74    71    73    1
   75    73    74    1
   76    45    75    1
   77    71    75    1
   78    75    76    1
   79    75    77    1
   80    77    78    1
   81    64    79    1
   82    77    79    1
   83    77    80    1
   84    80    81    1
   85    80    82    1
   86    80    83    1
   87    83    84    1
   88    85    86    1
   89    85    87    1
   90    85    88    1
   91    88    89    1
   92    88    90    1
   93    90    91    1
   94    88    92    1
   95    92    93    1
   96    92    94    1
   97    94    95    1
   98    66    96    1
   99    92    96    1
  100    96    97    1
  101    96    98    1
  102    98    99    1
  103    85   100    1
  104    98   100    1
  105    98   101    1
  106   101   102    1
  107   101   103    1
  108   101   104    1
  109   104   105    1
  110   106   107    1
  111    12   108    1
  112   106   108    1
  113   106   109    1
  114   109   110    1
  115   109   111    1
  116   111   112    1
  117   109   113    1
  118   113   114    1
  119   113   115    1
  120   115   116    1
  121    87   117    1
  122   113   117    1
  123   117   118    1
  124   117   119    1
  125   119   120    1
  126   106   121    1
  127   119   121    1
  128   119   122    1
  129   122   123    1
  130   122   124    1
  131   122   125    1
  132   125   126    1
  133   127   128    1
  134   127   129    1
  135   127   130    1
  136   127   131    1
  137   131   132    1
  138   131   133    1
  139   131   134    1
  140   134   135    1
  141   134   136    1
  142   134   137    1
  143   137   138    1
  144   137   139    1
  145   137   140    1
  146   140   141    1
  147   140   142    1
  148   140   143    1
  149   143   144    1
  150   143   145    1
  151   143   146    1
  152   146   147    1
  153   146   148    1
  154   146   149    1
@<TRIPOS>SUBSTRUCTURE
       1 MOL1            1 RESIDUE      1      MOL     
       2 MOL1          149 RESIDUE      1      MOL     
@<SCITEGIC>MOL_PROPERTY
VM2 Rank
SciTegic.value.IntegerValue
8

@<SCITEGIC>MOL_PROPERTY
Conf_Id
SciTegic.value.IntegerValue
24349

@<SCITEGIC>MOL_PROPERTY
Probability
SciTegic.value.DoubleValue
1.05

@<SCITEGIC>MOL_PROPERTY
Sum Probability
SciTegic.value.DoubleValue
11.67

@<SCITEGIC>MOL_PROPERTY
Delta G
SciTegic.value.DoubleValue
0.450

@<SCITEGIC>MOL_PROPERTY
G
SciTegic.value.DoubleValue
557.597

@<SCITEGIC>MOL_PROPERTY
E
SciTegic.value.DoubleValue
359.711

@<SCITEGIC>MOL_PROPERTY
-TS
SciTegic.value.DoubleValue
197.886

@<SCITEGIC>MOL_PROPERTY
U+W
SciTegic.value.DoubleValue
228.257

@<SCITEGIC>MOL_PROPERTY
U
SciTegic.value.DoubleValue
298.594

@<SCITEGIC>MOL_PROPERTY
W
SciTegic.value.DoubleValue
-70.336

@<SCITEGIC>MOL_PROPERTY
W(PB)
SciTegic.value.DoubleValue
-76.322

@<SCITEGIC>MOL_PROPERTY
W(SA)
SciTegic.value.DoubleValue
5.986

@<SCITEGIC>MOL_PROPERTY
Valence
SciTegic.value.DoubleValue
145.929

@<SCITEGIC>MOL_PROPERTY
Coulomb
SciTegic.value.DoubleValue
177.999

@<SCITEGIC>MOL_PROPERTY
VdW
SciTegic.value.DoubleValue
-25.334

@<SCITEGIC>MOL_PROPERTY
VdW6
SciTegic.value.DoubleValue
-176.228

@<SCITEGIC>MOL_PROPERTY
VdW12
SciTegic.value.DoubleValue
150.894

@<SCITEGIC>MOL_PROPERTY
Bond
SciTegic.value.DoubleValue
4.379

@<SCITEGIC>MOL_PROPERTY
Angle
SciTegic.value.DoubleValue
9.756

@<SCITEGIC>MOL_PROPERTY
Pdih
SciTegic.value.DoubleValue
131.794

@<SCITEGIC>MOL_PROPERTY
Idih
SciTegic.value.DoubleValue
0.000

@<SCITEGIC>MOL_PROPERTY
Tether
SciTegic.value.DoubleValue
0.000

