@<TRIPOS>MOLECULE
CD_guest-s18_vm2_single.mol2 : vm2 host+ligand conformer 1
         142         147           2
SMALL
USER_CHARGES
 
@<TRIPOS>ATOM
       1    C1      16.445765   15.238645   21.932388 C.3        1 MOL1         0.2972
       2    H1      15.412860   15.096174   22.273659 H          1 MOL1         0.0751
       3    O1      16.628061   16.530928   21.316124 O.3        1 MOL1        -0.3740
       4    C2      17.430903   15.103702   23.122313 C.3        1 MOL1         0.1003
       5    H2      17.322366   14.086293   23.519423 H          1 MOL1         0.0783
       6    O2      17.099659   16.040872   24.160570 O.3        1 MOL1        -0.5519
       7    H3      17.929371   16.540312   24.388562 H          1 MOL1         0.3769
       8    C3      18.896187   15.264450   22.641649 C.3        1 MOL1         0.1053
       9    H4      19.037675   16.295710   22.295178 H          1 MOL1         0.0783
      10    O3      19.793683   14.990358   23.724509 O.3        1 MOL1        -0.5519
      11    H5      19.813702   15.822850   24.268557 H          1 MOL1         0.3769
      12    C4      19.205553   14.321337   21.450301 C.3        1 MOL1         0.1018
      13    H6      19.311405   13.295887   21.827272 H          1 MOL1         0.0783
      14    C5      18.102492   14.365764   20.356221 C.3        1 MOL1         0.1043
      15    H7      18.169860   15.331575   19.838745 H          1 MOL1         0.0783
      16    O4      16.792522   14.227955   20.961331 O.3        1 MOL1        -0.3740
      17    C6      18.249672   13.256167   19.291325 C.3        1 MOL1         0.0138
      18    H8      19.189047   13.408860   18.743592 H          1 MOL1         0.0794
      19    H9      17.430203   13.351948   18.566502 H          1 MOL1         0.0794
      20    O5      18.233398   11.957040   19.890137 O.3        1 MOL1        -0.5486
      21    H10     17.390758   11.896667   20.393011 H          1 MOL1         0.3769
      22    C7      14.661477   20.194337   21.053349 C.3        1 MOL1         0.2972
      23    H11     13.944680   21.004773   20.870961 H          1 MOL1         0.0751
      24    O6      15.970948   20.696538   21.383297 O.3        1 MOL1        -0.3740
      25    C8      14.183726   19.301840   22.224618 C.3        1 MOL1         0.1003
      26    H12     13.210119   18.881643   21.940684 H          1 MOL1         0.0783
      27    O7      14.035803   20.062993   23.431911 O.3        1 MOL1        -0.5519
      28    H13     13.877556   19.388983   24.130605 H          1 MOL1         0.3769
      29    C9      15.160559   18.124507   22.462067 C.3        1 MOL1         0.1053
      30    H14     16.105557   18.540130   22.837757 H          1 MOL1         0.0783
      31    O8      14.591228   17.251815   23.444916 O.3        1 MOL1        -0.5519
      32    H15     15.354233   16.759048   23.837559 H          1 MOL1         0.3769
      33    C10     15.456864   17.354960   21.141220 C.3        1 MOL1         0.1018
      34    H16     14.584830   16.748150   20.863726 H          1 MOL1         0.0783
      35    C11     15.787108   18.315627   19.967283 C.3        1 MOL1         0.1043
      36    H17     16.777334   18.759267   20.136672 H          1 MOL1         0.0783
      37    O9      14.775212   19.349656   19.889249 O.3        1 MOL1        -0.3740
      38    C12     15.809804   17.583158   18.609487 C.3        1 MOL1         0.0138
      39    H18     14.824826   17.134970   18.422759 H          1 MOL1         0.0794
      40    H19     16.545643   16.769168   18.650493 H          1 MOL1         0.0794
      41    O10     16.149645   18.496992   17.564697 O.3        1 MOL1        -0.5486
      42    H20     15.521206   19.247318   17.649565 H          1 MOL1         0.3769
      43    C13     18.347688   24.086018   21.393449 C.3        1 MOL1         0.2972
      44    H21     18.738027   25.110418   21.349617 H          1 MOL1         0.0751
      45    O11     19.408530   23.113458   21.491939 O.3        1 MOL1        -0.3740
      46    C14     17.417174   23.932982   22.622796 C.3        1 MOL1         0.1003
      47    H22     16.597613   24.653655   22.504314 H          1 MOL1         0.0783
      48    O12     18.117600   24.212032   23.843230 O.3        1 MOL1        -0.5519
      49    H23     17.499795   23.927749   24.553821 H          1 MOL1         0.3769
      50    C15     16.799100   22.517437   22.680893 C.3        1 MOL1         0.1053
      51    H24     17.604126   21.804804   22.901022 H          1 MOL1         0.0783
      52    O13     15.808268   22.468144   23.714890 O.3        1 MOL1        -0.5519
      53    H25     15.344652   21.598898   23.621632 H          1 MOL1         0.3769
      54    C16     16.155188   22.122224   21.329223 C.3        1 MOL1         0.1018
      55    H26     15.203457   22.659469   21.224126 H          1 MOL1         0.0783
      56    C17     17.071634   22.435104   20.114247 C.3        1 MOL1         0.1043
      57    H27     17.912071   21.728347   20.118695 H          1 MOL1         0.0783
      58    O14     17.570692   23.791931   20.213367 O.3        1 MOL1        -0.3740
      59    C18     16.352673   22.301995   18.753925 C.3        1 MOL1         0.0138
      60    H28     16.035498   21.260891   18.616692 H          1 MOL1         0.0794
      61    H29     17.067415   22.533439   17.952985 H          1 MOL1         0.0794
      62    O15     15.223521   23.177320   18.679199 O.3        1 MOL1        -0.5486
      63    H30     15.566903   24.081154   18.857057 H          1 MOL1         0.3769
      64    C19     23.518568   22.652488   21.086031 C.3        1 MOL1         0.2972
      65    H31     24.588586   22.789464   20.883898 H          1 MOL1         0.0751
      66    O16     23.204292   21.265934   21.323381 O.3        1 MOL1        -0.3740
      67    C20     23.071335   23.509427   22.303003 C.3        1 MOL1         0.1003
      68    H32     23.268492   24.558432   22.047927 H          1 MOL1         0.0783
      69    O17     23.829008   23.170790   23.475455 O.3        1 MOL1        -0.5519
      70    H33     23.572791   22.248419   23.727005 H          1 MOL1         0.3769
      71    C21     21.545424   23.363504   22.548507 C.3        1 MOL1         0.1053
      72    H34     21.352169   22.337288   22.886619 H          1 MOL1         0.0783
      73    O18     21.099586   24.298674   23.539292 O.3        1 MOL1        -0.5519
      74    H35     20.126436   24.158254   23.645970 H          1 MOL1         0.3769
      75    C22     20.740662   23.605501   21.246655 C.3        1 MOL1         0.1018
      76    H36     20.748798   24.680981   21.025754 H          1 MOL1         0.0783
      77    C23     21.319088   22.839775   20.027442 C.3        1 MOL1         0.1043
      78    H37     21.118537   21.768060   20.157419 H          1 MOL1         0.0783
      79    O19     22.747023   23.075593   19.942931 O.3        1 MOL1        -0.3740
      80    C24     20.698873   23.278951   18.682420 C.3        1 MOL1         0.0138
      81    H38     19.619923   23.080831   18.700684 H          1 MOL1         0.0794
      82    H39     21.130403   22.666281   17.879729 H          1 MOL1         0.0794
      83    O20     20.942290   24.666545   18.431706 O.3        1 MOL1        -0.5486
      84    H40     21.915680   24.787503   18.497738 H          1 MOL1         0.3769
      85    C25     24.912797   17.589896   22.105222 C.3        1 MOL1         0.2972
      86    H41     25.549156   16.738776   22.378527 H          1 MOL1         0.0751
      87    O21     23.732554   17.168105   21.389945 O.3        1 MOL1        -0.3740
      88    C26     24.482393   18.374489   23.371284 C.3        1 MOL1         0.1003
      89    H42     25.393820   18.776419   23.832098 H          1 MOL1         0.0783
      90    O22     23.835572   17.500284   24.311320 O.3        1 MOL1        -0.5519
      91    H43     22.933231   17.875128   24.499730 H          1 MOL1         0.3769
      92    C27     23.582883   19.573735   22.977840 C.3        1 MOL1         0.1053
      93    H44     22.649845   19.172675   22.564905 H          1 MOL1         0.0783
      94    O23     23.290836   20.376220   24.128432 O.3        1 MOL1        -0.5519
      95    H45     22.585038   19.875444   24.615735 H          1 MOL1         0.3769
      96    C28     24.250143   20.449221   21.886615 C.3        1 MOL1         0.1018
      97    H46     25.035534   21.055104   22.357352 H          1 MOL1         0.0783
      98    C29     24.854888   19.608806   20.725020 C.3        1 MOL1         0.1043
      99    H47     24.026724   19.216563   20.119464 H          1 MOL1         0.0783
     100    O24     25.634701   18.507294   21.256091 O.3        1 MOL1        -0.3740
     101    C30     25.771591   20.421147   19.783173 C.3        1 MOL1         0.0138
     102    H48     25.170840   21.180545   19.265534 H          1 MOL1         0.0794
     103    H49     26.174181   19.746961   19.015367 H          1 MOL1         0.0794
     104    O25     26.838140   21.042957   20.505829 O.3        1 MOL1        -0.5486
     105    H50     27.320360   20.318481   20.963144 H          1 MOL1         0.3769
     106    C31     21.458117   13.836740   20.563851 C.3        1 MOL1         0.2972
     107    H51     21.033327   12.876967   20.242959 H          1 MOL1         0.0751
     108    O26     20.420809   14.802589   20.841737 O.3        1 MOL1        -0.3740
     109    C32     22.380898   13.654248   21.798934 C.3        1 MOL1         0.1003
     110    H52     23.215104   13.015470   21.481847 H          1 MOL1         0.0783
     111    O27     21.692023   12.999722   22.875037 O.3        1 MOL1        -0.5519
     112    H53     21.075865   13.671104   23.260944 H          1 MOL1         0.3769
     113    C33     22.976530   15.017885   22.241202 C.3        1 MOL1         0.1053
     114    H54     22.157365   15.637999   22.631180 H          1 MOL1         0.0783
     115    O28     23.959471   14.810681   23.262506 O.3        1 MOL1        -0.5519
     116    H55     23.993038   15.652814   23.778995 H          1 MOL1         0.3769
     117    C34     23.625270   15.773202   21.045130 C.3        1 MOL1         0.1018
     118    H56     24.609760   15.339077   20.825594 H          1 MOL1         0.0783
     119    C35     22.766893   15.731024   19.752123 C.3        1 MOL1         0.1043
     120    H57     21.923306   16.424072   19.867249 H          1 MOL1         0.0783
     121    O29     22.285713   14.383881   19.517278 O.3        1 MOL1        -0.3740
     122    C36     23.578002   16.160615   18.511990 C.3        1 MOL1         0.0138
     123    H58     24.391979   15.442464   18.345437 H          1 MOL1         0.0794
     124    H59     24.031530   17.143264   18.698339 H          1 MOL1         0.0794
     125    O30     22.725285   16.225790   17.367502 O.3        1 MOL1        -0.5486
     126    H60     22.221462   15.381349   17.356849 H          1 MOL1         0.3769
     127    C1      20.123822   18.482455   24.419133 C.2        1 MOL1         0.6075
     128    O1      21.285438   18.553153   24.773723 O.co2      1 MOL1        -0.6830
     129    O2      19.390151   17.554972   24.705169 O.co2      1 MOL1        -0.6830
     130    C2      19.555911   19.630284   23.586945 C.3        1 MOL1        -0.2050
     131    H1      20.309418   20.422420   23.523489 H          1 MOL1         0.0710
     132    H2      18.710033   20.042589   24.148460 H          1 MOL1         0.0710
     133    C3      19.082571   19.235803   22.163135 C.3        1 MOL1        -0.1947
     134    H3      18.338273   18.435134   22.238320 H          1 MOL1         0.0712
     135    H4      18.573884   20.093860   21.710875 H          1 MOL1         0.0712
     136    C4      20.231134   18.800051   21.230246 C.3        1 MOL1        -0.1921
     137    H5      20.758543   17.936640   21.658987 H          1 MOL1         0.0712
     138    H6      20.960486   19.614717   21.143793 H          1 MOL1         0.0712
     139    C5      19.708075   18.439706   19.825828 C.3        1 MOL1        -0.2936
     140    H7      20.537471   18.173652   19.158651 H          1 MOL1         0.0724
     141    H8      19.171515   19.285204   19.376593 H          1 MOL1         0.0724
     142    H9      19.022910   17.584353   19.873692 H          1 MOL1         0.0724
@<TRIPOS>BOND
    1     1     2    1
    2     1     3    1
    3     1     4    1
    4     4     5    1
    5     4     6    1
    6     6     7    1
    7     4     8    1
    8     8     9    1
    9     8    10    1
   10    10    11    1
   11     8    12    1
   12    12    13    1
   13    12    14    1
   14    14    15    1
   15     1    16    1
   16    14    16    1
   17    14    17    1
   18    17    18    1
   19    17    19    1
   20    17    20    1
   21    20    21    1
   22    22    23    1
   23    22    24    1
   24    22    25    1
   25    25    26    1
   26    25    27    1
   27    27    28    1
   28    25    29    1
   29    29    30    1
   30    29    31    1
   31    31    32    1
   32     3    33    1
   33    29    33    1
   34    33    34    1
   35    33    35    1
   36    35    36    1
   37    22    37    1
   38    35    37    1
   39    35    38    1
   40    38    39    1
   41    38    40    1
   42    38    41    1
   43    41    42    1
   44    43    44    1
   45    43    45    1
   46    43    46    1
   47    46    47    1
   48    46    48    1
   49    48    49    1
   50    46    50    1
   51    50    51    1
   52    50    52    1
   53    52    53    1
   54    24    54    1
   55    50    54    1
   56    54    55    1
   57    54    56    1
   58    56    57    1
   59    43    58    1
   60    56    58    1
   61    56    59    1
   62    59    60    1
   63    59    61    1
   64    59    62    1
   65    62    63    1
   66    64    65    1
   67    64    66    1
   68    64    67    1
   69    67    68    1
   70    67    69    1
   71    69    70    1
   72    67    71    1
   73    71    72    1
   74    71    73    1
   75    73    74    1
   76    45    75    1
   77    71    75    1
   78    75    76    1
   79    75    77    1
   80    77    78    1
   81    64    79    1
   82    77    79    1
   83    77    80    1
   84    80    81    1
   85    80    82    1
   86    80    83    1
   87    83    84    1
   88    85    86    1
   89    85    87    1
   90    85    88    1
   91    88    89    1
   92    88    90    1
   93    90    91    1
   94    88    92    1
   95    92    93    1
   96    92    94    1
   97    94    95    1
   98    66    96    1
   99    92    96    1
  100    96    97    1
  101    96    98    1
  102    98    99    1
  103    85   100    1
  104    98   100    1
  105    98   101    1
  106   101   102    1
  107   101   103    1
  108   101   104    1
  109   104   105    1
  110   106   107    1
  111    12   108    1
  112   106   108    1
  113   106   109    1
  114   109   110    1
  115   109   111    1
  116   111   112    1
  117   109   113    1
  118   113   114    1
  119   113   115    1
  120   115   116    1
  121    87   117    1
  122   113   117    1
  123   117   118    1
  124   117   119    1
  125   119   120    1
  126   106   121    1
  127   119   121    1
  128   119   122    1
  129   122   123    1
  130   122   124    1
  131   122   125    1
  132   125   126    1
  133   127   128    1
  134   127   129    2
  135   127   130    1
  136   130   131    1
  137   130   132    1
  138   130   133    1
  139   133   134    1
  140   133   135    1
  141   133   136    1
  142   136   137    1
  143   136   138    1
  144   136   139    1
  145   139   140    1
  146   139   141    1
  147   139   142    1
@<TRIPOS>SUBSTRUCTURE
       1 MOL1            1 RESIDUE      1      MOL     
       2 MOL1          142 RESIDUE      1      MOL     
@<SCITEGIC>MOL_PROPERTY
VM2 Rank
SciTegic.value.IntegerValue
1

@<SCITEGIC>MOL_PROPERTY
Conf_Id
SciTegic.value.IntegerValue
15037

@<SCITEGIC>MOL_PROPERTY
Probability
SciTegic.value.DoubleValue
2.13

@<SCITEGIC>MOL_PROPERTY
Sum Probability
SciTegic.value.DoubleValue
2.13

@<SCITEGIC>MOL_PROPERTY
Delta G
SciTegic.value.DoubleValue
0.000

@<SCITEGIC>MOL_PROPERTY
G
SciTegic.value.DoubleValue
481.270

@<SCITEGIC>MOL_PROPERTY
E
SciTegic.value.DoubleValue
296.545

@<SCITEGIC>MOL_PROPERTY
-TS
SciTegic.value.DoubleValue
184.725

@<SCITEGIC>MOL_PROPERTY
U+W
SciTegic.value.DoubleValue
171.351

@<SCITEGIC>MOL_PROPERTY
U
SciTegic.value.DoubleValue
234.551

@<SCITEGIC>MOL_PROPERTY
W
SciTegic.value.DoubleValue
-63.200

@<SCITEGIC>MOL_PROPERTY
W(PB)
SciTegic.value.DoubleValue
-69.224

@<SCITEGIC>MOL_PROPERTY
W(SA)
SciTegic.value.DoubleValue
6.023

@<SCITEGIC>MOL_PROPERTY
Valence
SciTegic.value.DoubleValue
150.777

@<SCITEGIC>MOL_PROPERTY
Coulomb
SciTegic.value.DoubleValue
104.704

@<SCITEGIC>MOL_PROPERTY
VdW
SciTegic.value.DoubleValue
-20.930

@<SCITEGIC>MOL_PROPERTY
VdW6
SciTegic.value.DoubleValue
-180.722

@<SCITEGIC>MOL_PROPERTY
VdW12
SciTegic.value.DoubleValue
159.792

@<SCITEGIC>MOL_PROPERTY
Bond
SciTegic.value.DoubleValue
5.052

@<SCITEGIC>MOL_PROPERTY
Angle
SciTegic.value.DoubleValue
12.051

@<SCITEGIC>MOL_PROPERTY
Pdih
SciTegic.value.DoubleValue
133.674

@<SCITEGIC>MOL_PROPERTY
Idih
SciTegic.value.DoubleValue
0.001

@<SCITEGIC>MOL_PROPERTY
Tether
SciTegic.value.DoubleValue
0.000

