@<TRIPOS>MOLECULE
CD_guest-s11_vm2_single.mol2 : vm2 host+ligand conformer 1
         146         151           2
SMALL
USER_CHARGES
 
@<TRIPOS>ATOM
       1    C1      16.167929   14.988627   20.623173 C.3        1 MOL1         0.2972
       2    H1      15.107290   14.876740   20.363265 H          1 MOL1         0.0751
       3    O1      16.508382   16.364037   20.900640 O.3        1 MOL1        -0.3740
       4    C2      16.551531   14.100171   21.833869 C.3        1 MOL1         0.1003
       5    H2      16.422695   13.056202   21.519383 H          1 MOL1         0.0783
       6    O2      15.712606   14.343863   22.972088 O.3        1 MOL1        -0.5519
       7    H3      15.866808   15.281775   23.250602 H          1 MOL1         0.3769
       8    C3      18.041366   14.306104   22.198554 C.3        1 MOL1         0.1053
       9    H4      18.158010   15.331104   22.578130 H          1 MOL1         0.0783
      10    O3      18.401100   13.368237   23.219090 O.3        1 MOL1        -0.5519
      11    H5      17.624651   13.339754   23.823675 H          1 MOL1         0.3769
      12    C4      18.967146   14.142408   20.958424 C.3        1 MOL1         0.1018
      13    H6      19.124041   13.074948   20.753286 H          1 MOL1         0.0783
      14    C5      18.411559   14.817561   19.673866 C.3        1 MOL1         0.1043
      15    H7      18.578782   15.898002   19.747567 H          1 MOL1         0.0783
      16    O4      16.995615   14.546644   19.528503 O.3        1 MOL1        -0.3740
      17    C6      19.122922   14.311996   18.402023 C.3        1 MOL1         0.0138
      18    H8      18.912027   13.242502   18.268460 H          1 MOL1         0.0794
      19    H9      20.208289   14.426113   18.525939 H          1 MOL1         0.0794
      20    O5      18.680519   15.057164   17.265650 O.3        1 MOL1        -0.5486
      21    H10     17.699590   14.993815   17.263831 H          1 MOL1         0.3769
      22    C7      15.028077   20.094670   21.807274 C.3        1 MOL1         0.2972
      23    H11     14.425130   20.968099   22.085515 H          1 MOL1         0.0751
      24    O6      16.299903   20.481535   21.245154 O.3        1 MOL1        -0.3740
      25    C8      15.280247   19.200093   23.047255 C.3        1 MOL1         0.1003
      26    H12     14.298604   18.880967   23.421083 H          1 MOL1         0.0783
      27    O7      15.970483   19.918579   24.082830 O.3        1 MOL1        -0.5519
      28    H13     15.838494   20.880934   23.904439 H          1 MOL1         0.3769
      29    C9      16.084923   17.938528   22.660661 C.3        1 MOL1         0.1053
      30    H14     17.096351   18.258929   22.388537 H          1 MOL1         0.0783
      31    O8      16.153005   17.067653   23.792562 O.3        1 MOL1        -0.5519
      32    H15     16.389633   17.657713   24.543539 H          1 MOL1         0.3769
      33    C10     15.470213   17.201834   21.442125 C.3        1 MOL1         0.1018
      34    H16     14.602449   16.619506   21.779576 H          1 MOL1         0.0783
      35    C11     15.052711   18.168826   20.298401 C.3        1 MOL1         0.1043
      36    H17     15.964097   18.524900   19.800884 H          1 MOL1         0.0783
      37    O9      14.322582   19.299611   20.831945 O.3        1 MOL1        -0.3740
      38    C12     14.169064   17.498417   19.223061 C.3        1 MOL1         0.0138
      39    H18     14.748557   16.710173   18.724334 H          1 MOL1         0.0794
      40    H19     13.911361   18.245905   18.460820 H          1 MOL1         0.0794
      41    O10     12.981622   16.946946   19.799292 O.3        1 MOL1        -0.5486
      42    H20     12.521839   17.690787   20.248674 H          1 MOL1         0.3769
      43    C13     18.535048   23.982151   20.850517 C.3        1 MOL1         0.2972
      44    H21     18.895727   24.988274   20.600013 H          1 MOL1         0.0751
      45    O11     19.600694   23.131787   21.311973 O.3        1 MOL1        -0.3740
      46    C14     17.446229   24.035886   21.952037 C.3        1 MOL1         0.1003
      47    H22     16.614568   24.633592   21.556728 H          1 MOL1         0.0783
      48    O12     17.938808   24.657223   23.149946 O.3        1 MOL1        -0.5519
      49    H23     18.767210   24.182103   23.414148 H          1 MOL1         0.3769
      50    C15     16.907587   22.616833   22.261721 C.3        1 MOL1         0.1053
      51    H24     17.719565   22.036294   22.721433 H          1 MOL1         0.0783
      52    O13     15.817182   22.736023   23.182251 O.3        1 MOL1        -0.5519
      53    H25     16.098262   23.434382   23.816875 H          1 MOL1         0.3769
      54    C16     16.468114   21.884867   20.960079 C.3        1 MOL1         0.1018
      55    H26     15.536985   22.326836   20.580910 H          1 MOL1         0.0783
      56    C17     17.549793   21.978280   19.851391 C.3        1 MOL1         0.1043
      57    H27     18.409420   21.364762   20.146846 H          1 MOL1         0.0783
      58    O14     17.948425   23.361334   19.687506 O.3        1 MOL1        -0.3740
      59    C18     17.042207   21.472028   18.484220 C.3        1 MOL1         0.0138
      60    H28     16.216163   22.111243   18.144951 H          1 MOL1         0.0794
      61    H29     16.649893   20.453279   18.598195 H          1 MOL1         0.0794
      62    O15     18.108527   21.480642   17.530439 O.3        1 MOL1        -0.5486
      63    H30     18.462953   22.397851   17.535950 H          1 MOL1         0.3769
      64    C19     23.593910   22.889410   22.064662 C.3        1 MOL1         0.2972
      65    H31     24.665423   22.994616   22.278490 H          1 MOL1         0.0751
      66    O16     23.256092   21.550735   21.645842 O.3        1 MOL1        -0.3740
      67    C20     22.759104   23.243128   23.319719 C.3        1 MOL1         0.1003
      68    H32     22.939886   24.301367   23.549180 H          1 MOL1         0.0783
      69    O17     23.146767   22.442135   24.447173 O.3        1 MOL1        -0.5519
      70    H33     23.727917   21.717936   24.105982 H          1 MOL1         0.3769
      71    C21     21.252122   23.065069   23.030994 C.3        1 MOL1         0.1053
      72    H34     21.067944   21.992001   22.913272 H          1 MOL1         0.0783
      73    O18     20.490180   23.553811   24.138606 O.3        1 MOL1        -0.5519
      74    H35     20.938840   23.186441   24.933079 H          1 MOL1         0.3769
      75    C22     20.812972   23.785105   21.729014 C.3        1 MOL1         0.1018
      76    H36     20.651197   24.847080   21.957595 H          1 MOL1         0.0783
      77    C23     21.823418   23.636565   20.553071 C.3        1 MOL1         0.1043
      78    H37     21.698894   22.633015   20.125324 H          1 MOL1         0.0783
      79    O19     23.187531   23.795728   21.019275 O.3        1 MOL1        -0.3740
      80    C24     21.593927   24.651548   19.411351 C.3        1 MOL1         0.0138
      81    H38     20.613431   24.462853   18.954770 H          1 MOL1         0.0794
      82    H39     22.351803   24.485813   18.633930 H          1 MOL1         0.0794
      83    O20     21.663386   25.996395   19.893376 O.3        1 MOL1        -0.5486
      84    H40     22.550339   26.096642   20.305577 H          1 MOL1         0.3769
      85    C25     24.886733   17.817862   20.888707 C.3        1 MOL1         0.2972
      86    H41     25.525496   16.973677   20.598840 H          1 MOL1         0.0751
      87    O21     23.524642   17.393157   21.106302 O.3        1 MOL1        -0.3740
      88    C26     25.443015   18.528030   22.155723 C.3        1 MOL1         0.1003
      89    H42     26.445909   18.894528   21.900696 H          1 MOL1         0.0783
      90    O22     25.549319   17.639080   23.277617 O.3        1 MOL1        -0.5519
      91    H43     24.626906   17.367080   23.515169 H          1 MOL1         0.3769
      92    C27     24.573255   19.751495   22.528686 C.3        1 MOL1         0.1053
      93    H44     23.591359   19.381404   22.854608 H          1 MOL1         0.0783
      94    O23     25.196852   20.471322   23.596505 O.3        1 MOL1        -0.5519
      95    H45     25.517772   19.780357   24.219100 H          1 MOL1         0.3769
      96    C28     24.357259   20.687319   21.312181 C.3        1 MOL1         0.1018
      97    H46     25.276439   21.252221   21.106593 H          1 MOL1         0.0783
      98    C29     23.950695   19.910888   20.033025 C.3        1 MOL1         0.1043
      99    H47     22.924123   19.548642   20.155641 H          1 MOL1         0.0783
     100    O24     24.860104   18.800229   19.831672 O.3        1 MOL1        -0.3740
     101    C30     23.996378   20.789560   18.766617 C.3        1 MOL1         0.0138
     102    H48     25.039953   21.041913   18.535472 H          1 MOL1         0.0794
     103    H49     23.460832   21.728653   18.954094 H          1 MOL1         0.0794
     104    O25     23.389131   20.095147   17.674738 O.3        1 MOL1        -0.5486
     105    H50     23.863363   19.238007   17.597122 H          1 MOL1         0.3769
     106    C31     21.208744   14.054392   21.949784 C.3        1 MOL1         0.2972
     107    H51     20.829097   13.069749   22.251522 H          1 MOL1         0.0751
     108    O26     20.211189   14.813772   21.238629 O.3        1 MOL1        -0.3740
     109    C32     21.675500   14.859371   23.192200 C.3        1 MOL1         0.1003
     110    H52     22.472736   14.277640   23.673049 H          1 MOL1         0.0783
     111    O27     20.608909   15.064021   24.132732 O.3        1 MOL1        -0.5519
     112    H53     19.906058   14.401289   23.927993 H          1 MOL1         0.3769
     113    C33     22.260922   16.225567   22.772436 C.3        1 MOL1         0.1053
     114    H54     21.437656   16.826917   22.369424 H          1 MOL1         0.0783
     115    O28     22.816603   16.870462   23.922769 O.3        1 MOL1        -0.5519
     116    H55     22.132556   16.758372   24.620770 H          1 MOL1         0.3769
     117    C34     23.334805   16.078545   21.667115 C.3        1 MOL1         0.1018
     118    H56     24.254725   15.686402   22.119970 H          1 MOL1         0.0783
     119    C35     22.876429   15.136424   20.518611 C.3        1 MOL1         0.1043
     120    H57     22.095788   15.649310   19.940978 H          1 MOL1         0.0783
     121    O29     22.346680   13.905418   21.073472 O.3        1 MOL1        -0.3740
     122    C36     24.009565   14.761780   19.537422 C.3        1 MOL1         0.0138
     123    H58     24.340083   15.666625   19.010523 H          1 MOL1         0.0794
     124    H59     23.608793   14.073261   18.781446 H          1 MOL1         0.0794
     125    O30     25.111742   14.159976   20.222453 O.3        1 MOL1        -0.5486
     126    H60     24.751506   13.371557   20.686276 H          1 MOL1         0.3769
     127    N1      19.295812   18.862532   16.879964 N.4        1 MOL1        -0.5919
     128    H1      18.945137   19.835228   16.894730 H          1 MOL1         0.3682
     129    H2      20.268843   18.891046   16.560677 H          1 MOL1         0.3682
     130    H3      18.752809   18.355653   16.174303 H          1 MOL1         0.3682
     131    C1      19.165047   18.233724   18.249283 C.3        1 MOL1         0.0252
     132    H4      19.428381   17.175576   18.172819 H          1 MOL1         0.0971
     133    H5      18.114964   18.309163   18.543870 H          1 MOL1         0.0971
     134    C2      20.051035   18.917835   19.302906 C.3        1 MOL1        -0.1369
     135    H6      21.087181   18.573974   19.187580 H          1 MOL1         0.0997
     136    H7      20.053680   20.001812   19.126481 H          1 MOL1         0.0997
     137    C3      19.545133   18.638412   20.733588 C.3        1 MOL1        -0.1329
     138    H8      19.596836   17.563790   20.952868 H          1 MOL1         0.0997
     139    H9      18.488643   18.927098   20.796821 H          1 MOL1         0.0997
     140    C4      20.350782   19.425400   21.787277 C.3        1 MOL1        -0.1305
     141    H10     21.394955   19.088386   21.786537 H          1 MOL1         0.0997
     142    H11     20.362489   20.487450   21.513359 H          1 MOL1         0.0997
     143    C5      19.763392   19.266480   23.205296 C.3        1 MOL1        -0.2320
     144    H12     19.702075   18.208964   23.494969 H          1 MOL1         0.1008
     145    H13     20.391347   19.781393   23.943847 H          1 MOL1         0.1008
     146    H14     18.755616   19.697477   23.265650 H          1 MOL1         0.1008
@<TRIPOS>BOND
    1     1     2    1
    2     1     3    1
    3     1     4    1
    4     4     5    1
    5     4     6    1
    6     6     7    1
    7     4     8    1
    8     8     9    1
    9     8    10    1
   10    10    11    1
   11     8    12    1
   12    12    13    1
   13    12    14    1
   14    14    15    1
   15     1    16    1
   16    14    16    1
   17    14    17    1
   18    17    18    1
   19    17    19    1
   20    17    20    1
   21    20    21    1
   22    22    23    1
   23    22    24    1
   24    22    25    1
   25    25    26    1
   26    25    27    1
   27    27    28    1
   28    25    29    1
   29    29    30    1
   30    29    31    1
   31    31    32    1
   32     3    33    1
   33    29    33    1
   34    33    34    1
   35    33    35    1
   36    35    36    1
   37    22    37    1
   38    35    37    1
   39    35    38    1
   40    38    39    1
   41    38    40    1
   42    38    41    1
   43    41    42    1
   44    43    44    1
   45    43    45    1
   46    43    46    1
   47    46    47    1
   48    46    48    1
   49    48    49    1
   50    46    50    1
   51    50    51    1
   52    50    52    1
   53    52    53    1
   54    24    54    1
   55    50    54    1
   56    54    55    1
   57    54    56    1
   58    56    57    1
   59    43    58    1
   60    56    58    1
   61    56    59    1
   62    59    60    1
   63    59    61    1
   64    59    62    1
   65    62    63    1
   66    64    65    1
   67    64    66    1
   68    64    67    1
   69    67    68    1
   70    67    69    1
   71    69    70    1
   72    67    71    1
   73    71    72    1
   74    71    73    1
   75    73    74    1
   76    45    75    1
   77    71    75    1
   78    75    76    1
   79    75    77    1
   80    77    78    1
   81    64    79    1
   82    77    79    1
   83    77    80    1
   84    80    81    1
   85    80    82    1
   86    80    83    1
   87    83    84    1
   88    85    86    1
   89    85    87    1
   90    85    88    1
   91    88    89    1
   92    88    90    1
   93    90    91    1
   94    88    92    1
   95    92    93    1
   96    92    94    1
   97    94    95    1
   98    66    96    1
   99    92    96    1
  100    96    97    1
  101    96    98    1
  102    98    99    1
  103    85   100    1
  104    98   100    1
  105    98   101    1
  106   101   102    1
  107   101   103    1
  108   101   104    1
  109   104   105    1
  110   106   107    1
  111    12   108    1
  112   106   108    1
  113   106   109    1
  114   109   110    1
  115   109   111    1
  116   111   112    1
  117   109   113    1
  118   113   114    1
  119   113   115    1
  120   115   116    1
  121    87   117    1
  122   113   117    1
  123   117   118    1
  124   117   119    1
  125   119   120    1
  126   106   121    1
  127   119   121    1
  128   119   122    1
  129   122   123    1
  130   122   124    1
  131   122   125    1
  132   125   126    1
  133   127   128    1
  134   127   129    1
  135   127   130    1
  136   127   131    1
  137   131   132    1
  138   131   133    1
  139   131   134    1
  140   134   135    1
  141   134   136    1
  142   134   137    1
  143   137   138    1
  144   137   139    1
  145   137   140    1
  146   140   141    1
  147   140   142    1
  148   140   143    1
  149   143   144    1
  150   143   145    1
  151   143   146    1
@<TRIPOS>SUBSTRUCTURE
       1 MOL1            1 RESIDUE      1      MOL     
       2 MOL1          146 RESIDUE      1      MOL     
@<SCITEGIC>MOL_PROPERTY
VM2 Rank
SciTegic.value.IntegerValue
1

@<SCITEGIC>MOL_PROPERTY
Conf_Id
SciTegic.value.IntegerValue
21921

@<SCITEGIC>MOL_PROPERTY
Probability
SciTegic.value.DoubleValue
2.95

@<SCITEGIC>MOL_PROPERTY
Sum Probability
SciTegic.value.DoubleValue
2.95

@<SCITEGIC>MOL_PROPERTY
Delta G
SciTegic.value.DoubleValue
0.000

@<SCITEGIC>MOL_PROPERTY
G
SciTegic.value.DoubleValue
547.799

@<SCITEGIC>MOL_PROPERTY
E
SciTegic.value.DoubleValue
354.410

@<SCITEGIC>MOL_PROPERTY
-TS
SciTegic.value.DoubleValue
193.389

@<SCITEGIC>MOL_PROPERTY
U+W
SciTegic.value.DoubleValue
225.639

@<SCITEGIC>MOL_PROPERTY
U
SciTegic.value.DoubleValue
295.442

@<SCITEGIC>MOL_PROPERTY
W
SciTegic.value.DoubleValue
-69.803

@<SCITEGIC>MOL_PROPERTY
W(PB)
SciTegic.value.DoubleValue
-75.744

@<SCITEGIC>MOL_PROPERTY
W(SA)
SciTegic.value.DoubleValue
5.942

@<SCITEGIC>MOL_PROPERTY
Valence
SciTegic.value.DoubleValue
145.579

@<SCITEGIC>MOL_PROPERTY
Coulomb
SciTegic.value.DoubleValue
173.931

@<SCITEGIC>MOL_PROPERTY
VdW
SciTegic.value.DoubleValue
-24.069

@<SCITEGIC>MOL_PROPERTY
VdW6
SciTegic.value.DoubleValue
-173.760

@<SCITEGIC>MOL_PROPERTY
VdW12
SciTegic.value.DoubleValue
149.692

@<SCITEGIC>MOL_PROPERTY
Bond
SciTegic.value.DoubleValue
4.330

@<SCITEGIC>MOL_PROPERTY
Angle
SciTegic.value.DoubleValue
9.923

@<SCITEGIC>MOL_PROPERTY
Pdih
SciTegic.value.DoubleValue
131.327

@<SCITEGIC>MOL_PROPERTY
Idih
SciTegic.value.DoubleValue
0.000

@<SCITEGIC>MOL_PROPERTY
Tether
SciTegic.value.DoubleValue
0.000

@<TRIPOS>MOLECULE
CD_guest-s11_vm2_single.mol2 : vm2 host+ligand conformer 2
         146         151           2
SMALL
USER_CHARGES
 
@<TRIPOS>ATOM
       1    C1      16.166294   14.926438   20.702166 C.3        1 MOL1         0.2972
       2    H1      15.106511   14.796476   20.449732 H          1 MOL1         0.0751
       3    O1      16.490519   16.311071   20.956899 O.3        1 MOL1        -0.3740
       4    C2      16.566401   14.053170   21.918056 C.3        1 MOL1         0.1003
       5    H2      16.454071   13.005252   21.610316 H          1 MOL1         0.0783
       6    O2      15.722776   14.288670   23.053992 O.3        1 MOL1        -0.5519
       7    H3      15.871526   15.226241   23.336032 H          1 MOL1         0.3769
       8    C3      18.054021   14.284360   22.275624 C.3        1 MOL1         0.1053
       9    H4      18.159221   15.316063   22.639943 H          1 MOL1         0.0783
      10    O3      18.431058   13.365768   23.307300 O.3        1 MOL1        -0.5519
      11    H5      17.658000   13.334558   23.915976 H          1 MOL1         0.3769
      12    C4      18.974549   14.113899   21.032559 C.3        1 MOL1         0.1018
      13    H6      19.139181   13.045409   20.839061 H          1 MOL1         0.0783
      14    C5      18.406270   14.768819   19.742944 C.3        1 MOL1         0.1043
      15    H7      18.563178   15.851656   19.803277 H          1 MOL1         0.0783
      16    O4      16.992194   14.481943   19.607606 O.3        1 MOL1        -0.3740
      17    C6      19.116637   14.255268   18.473764 C.3        1 MOL1         0.0138
      18    H8      18.911954   13.183233   18.351378 H          1 MOL1         0.0794
      19    H9      20.201676   14.377255   18.592838 H          1 MOL1         0.0794
      20    O5      18.666095   14.986546   17.331666 O.3        1 MOL1        -0.5486
      21    H10     17.685162   14.922289   17.336246 H          1 MOL1         0.3769
      22    C7      15.025178   20.045248   21.897573 C.3        1 MOL1         0.2972
      23    H11     14.421564   20.915029   22.185803 H          1 MOL1         0.0751
      24    O6      16.291639   20.438822   21.329441 O.3        1 MOL1        -0.3740
      25    C8      15.287590   19.144115   23.129339 C.3        1 MOL1         0.1003
      26    H12     14.308663   18.828221   23.512889 H          1 MOL1         0.0783
      27    O7      15.992018   19.856539   24.159602 O.3        1 MOL1        -0.5519
      28    H13     15.867222   20.820007   23.981766 H          1 MOL1         0.3769
      29    C9      16.081631   17.879926   22.728350 C.3        1 MOL1         0.1053
      30    H14     17.094251   18.196272   22.455189 H          1 MOL1         0.0783
      31    O8      16.148375   17.003871   23.855639 O.3        1 MOL1        -0.5519
      32    H15     16.394196   17.588678   24.607910 H          1 MOL1         0.3769
      33    C10     15.459077   17.154532   21.504644 C.3        1 MOL1         0.1018
      34    H16     14.582595   16.579552   21.832434 H          1 MOL1         0.0783
      35    C11     15.053798   18.135649   20.369632 C.3        1 MOL1         0.1043
      36    H17     15.965937   18.491915   19.873393 H          1 MOL1         0.0783
      37    O9      14.316955   19.252748   20.923452 O.3        1 MOL1        -0.3740
      38    C12     14.158125   17.472937   19.303057 C.3        1 MOL1         0.0138
      39    H18     13.223637   17.135336   19.771027 H          1 MOL1         0.0794
      40    H19     14.669292   16.591172   18.894904 H          1 MOL1         0.0794
      41    O10     13.886894   18.402691   18.252717 O.3        1 MOL1        -0.5486
      42    H20     13.549303   19.215879   18.690877 H          1 MOL1         0.3769
      43    C13     18.487702   23.953510   20.872828 C.3        1 MOL1         0.2972
      44    H21     18.836421   24.961173   20.611849 H          1 MOL1         0.0751
      45    O11     19.568349   23.111747   21.314842 O.3        1 MOL1        -0.3740
      46    C14     17.419668   24.003059   21.995064 C.3        1 MOL1         0.1003
      47    H22     16.574867   24.590829   21.612955 H          1 MOL1         0.0783
      48    O12     17.928681   24.634818   23.180497 O.3        1 MOL1        -0.5519
      49    H23     18.762281   24.163859   23.435603 H          1 MOL1         0.3769
      50    C15     16.901223   22.580243   22.320851 C.3        1 MOL1         0.1053
      51    H24     17.728631   22.008860   22.764208 H          1 MOL1         0.0783
      52    O13     15.829741   22.689048   23.264653 O.3        1 MOL1        -0.5519
      53    H25     16.117361   23.390183   23.893135 H          1 MOL1         0.3769
      54    C16     16.441308   21.840726   21.031026 C.3        1 MOL1         0.1018
      55    H26     15.498741   22.273115   20.669452 H          1 MOL1         0.0783
      56    C17     17.498486   21.938328   19.899481 C.3        1 MOL1         0.1043
      57    H27     18.368634   21.332465   20.179154 H          1 MOL1         0.0783
      58    O14     17.882902   23.324237   19.723606 O.3        1 MOL1        -0.3740
      59    C18     16.967691   21.423717   18.544026 C.3        1 MOL1         0.0138
      60    H28     16.128787   22.054045   18.220136 H          1 MOL1         0.0794
      61    H29     16.587199   20.401278   18.666766 H          1 MOL1         0.0794
      62    O15     18.015209   21.441902   17.569485 O.3        1 MOL1        -0.5486
      63    H30     18.360934   22.362404   17.567776 H          1 MOL1         0.3769
      64    C19     23.568870   22.888930   22.018205 C.3        1 MOL1         0.2972
      65    H31     24.642753   22.996631   22.218507 H          1 MOL1         0.0751
      66    O16     23.229722   21.550789   21.598193 O.3        1 MOL1        -0.3740
      67    C20     22.748816   23.236745   23.284668 C.3        1 MOL1         0.1003
      68    H32     22.928058   24.295367   23.513586 H          1 MOL1         0.0783
      69    O17     23.153206   22.435828   24.406252 O.3        1 MOL1        -0.5519
      70    H33     23.745279   21.723417   24.059190 H          1 MOL1         0.3769
      71    C21     21.239271   23.052756   23.014551 C.3        1 MOL1         0.1053
      72    H34     21.058807   21.979102   22.896407 H          1 MOL1         0.0783
      73    O18     20.489602   23.534748   24.133387 O.3        1 MOL1        -0.5519
      74    H35     20.951167   23.167971   24.920747 H          1 MOL1         0.3769
      75    C22     20.779958   23.773642   21.719927 C.3        1 MOL1         0.1018
      76    H36     20.612476   24.833688   21.953278 H          1 MOL1         0.0783
      77    C23     21.777312   23.635888   20.531423 C.3        1 MOL1         0.1043
      78    H37     21.652005   22.634141   20.099702 H          1 MOL1         0.0783
      79    O19     23.146453   23.798102   20.981675 O.3        1 MOL1        -0.3740
      80    C24     21.529415   24.655885   19.398085 C.3        1 MOL1         0.0138
      81    H38     20.543805   24.465802   18.953211 H          1 MOL1         0.0794
      82    H39     22.277874   24.497079   18.610169 H          1 MOL1         0.0794
      83    O20     21.600037   25.998465   19.886224 O.3        1 MOL1        -0.5486
      84    H40     22.491676   26.099799   20.287925 H          1 MOL1         0.3769
      85    C25     24.866348   17.818806   20.846547 C.3        1 MOL1         0.2972
      86    H41     25.504320   16.975306   20.552991 H          1 MOL1         0.0751
      87    O21     23.510473   17.389355   21.091373 O.3        1 MOL1        -0.3740
      88    C26     25.440634   18.542573   22.097640 C.3        1 MOL1         0.1003
      89    H42     26.437350   18.911262   21.822347 H          1 MOL1         0.0783
      90    O22     25.570048   17.664107   23.225383 O.3        1 MOL1        -0.5519
      91    H43     24.653022   17.390392   23.481141 H          1 MOL1         0.3769
      92    C27     24.571878   19.765375   22.475036 C.3        1 MOL1         0.1053
      93    H44     23.597696   19.393874   22.821962 H          1 MOL1         0.0783
      94    O23     25.212124   20.496797   23.524977 O.3        1 MOL1        -0.5519
      95    H45     25.549040   19.812257   24.146288 H          1 MOL1         0.3769
      96    C28     24.329397   20.689364   21.254303 C.3        1 MOL1         0.1018
      97    H46     25.241695   21.257211   21.027288 H          1 MOL1         0.0783
      98    C29     23.904629   19.899436   19.989308 C.3        1 MOL1         0.1043
      99    H47     22.882198   19.532810   20.132563 H          1 MOL1         0.0783
     100    O24     24.816475   18.791894   19.781789 O.3        1 MOL1        -0.3740
     101    C30     23.923618   20.767468   18.714903 C.3        1 MOL1         0.0138
     102    H48     24.961523   21.024907   18.464630 H          1 MOL1         0.0794
     103    H49     23.384617   21.704458   18.903283 H          1 MOL1         0.0794
     104    O25     23.303564   20.059646   17.638956 O.3        1 MOL1        -0.5486
     105    H50     23.781556   19.204557   17.561735 H          1 MOL1         0.3769
     106    C31     21.224746   14.049160   22.002068 C.3        1 MOL1         0.2972
     107    H51     20.853265   13.066218   22.319164 H          1 MOL1         0.0751
     108    O26     20.213853   14.798436   21.299366 O.3        1 MOL1        -0.3740
     109    C32     21.705294   14.867933   23.229724 C.3        1 MOL1         0.1003
     110    H52     22.511103   14.294080   23.705714 H          1 MOL1         0.0783
     111    O27     20.649594   15.077312   24.181600 O.3        1 MOL1        -0.5519
     112    H53     19.942786   14.415903   23.986051 H          1 MOL1         0.3769
     113    C33     22.279440   16.232164   22.788320 C.3        1 MOL1         0.1053
     114    H54     21.447884   16.826771   22.392394 H          1 MOL1         0.0783
     115    O28     22.850452   16.889867   23.923823 O.3        1 MOL1        -0.5519
     116    H55     22.177223   16.783396   24.633086 H          1 MOL1         0.3769
     117    C34     23.336745   16.079320   21.667812 C.3        1 MOL1         0.1018
     118    H56     24.265679   15.696461   22.110056 H          1 MOL1         0.0783
     119    C35     22.865862   15.123766   20.535599 C.3        1 MOL1         0.1043
     120    H57     22.074438   15.627429   19.964564 H          1 MOL1         0.0783
     121    O29     22.350077   13.896096   21.110442 O.3        1 MOL1        -0.3740
     122    C36     23.985919   14.744330   19.541323 C.3        1 MOL1         0.0138
     123    H58     24.304152   15.645223   19.000287 H          1 MOL1         0.0794
     124    H59     23.577123   14.046262   18.798514 H          1 MOL1         0.0794
     125    O30     25.101115   14.154655   20.215735 O.3        1 MOL1        -0.5486
     126    H60     24.751648   13.369418   20.692998 H          1 MOL1         0.3769
     127    N1      19.189632   18.820433   16.911233 N.4        1 MOL1        -0.5919
     128    H1      18.838217   19.792864   16.930274 H          1 MOL1         0.3682
     129    H2      20.156066   18.848581   16.572556 H          1 MOL1         0.3682
     130    H3      18.632441   18.311687   16.218065 H          1 MOL1         0.3682
     131    C1      19.085847   18.195328   18.284597 C.3        1 MOL1         0.0252
     132    H4      19.350330   17.137616   18.206440 H          1 MOL1         0.0971
     133    H5      18.040959   18.269108   18.597987 H          1 MOL1         0.0971
     134    C2      19.989582   18.885190   19.319577 C.3        1 MOL1        -0.1369
     135    H6      21.024943   18.545566   19.185631 H          1 MOL1         0.0997
     136    H7      19.984483   19.968623   19.140201 H          1 MOL1         0.0997
     137    C3      19.511893   18.607504   20.760290 C.3        1 MOL1        -0.1329
     138    H8      19.577301   17.534407   20.983107 H          1 MOL1         0.0997
     139    H9      18.454105   18.886799   20.840733 H          1 MOL1         0.0997
     140    C4      20.328039   19.406451   21.796807 C.3        1 MOL1        -0.1305
     141    H10     21.375003   19.078535   21.780752 H          1 MOL1         0.0997
     142    H11     20.325961   20.467256   21.517826 H          1 MOL1         0.0997
     143    C5      19.764679   19.249506   23.224787 C.3        1 MOL1        -0.2320
     144    H12     18.753405   19.670117   23.298380 H          1 MOL1         0.1008
     145    H13     19.718916   18.193141   23.521353 H          1 MOL1         0.1008
     146    H14     20.398561   19.775235   23.950547 H          1 MOL1         0.1008
@<TRIPOS>BOND
    1     1     2    1
    2     1     3    1
    3     1     4    1
    4     4     5    1
    5     4     6    1
    6     6     7    1
    7     4     8    1
    8     8     9    1
    9     8    10    1
   10    10    11    1
   11     8    12    1
   12    12    13    1
   13    12    14    1
   14    14    15    1
   15     1    16    1
   16    14    16    1
   17    14    17    1
   18    17    18    1
   19    17    19    1
   20    17    20    1
   21    20    21    1
   22    22    23    1
   23    22    24    1
   24    22    25    1
   25    25    26    1
   26    25    27    1
   27    27    28    1
   28    25    29    1
   29    29    30    1
   30    29    31    1
   31    31    32    1
   32     3    33    1
   33    29    33    1
   34    33    34    1
   35    33    35    1
   36    35    36    1
   37    22    37    1
   38    35    37    1
   39    35    38    1
   40    38    39    1
   41    38    40    1
   42    38    41    1
   43    41    42    1
   44    43    44    1
   45    43    45    1
   46    43    46    1
   47    46    47    1
   48    46    48    1
   49    48    49    1
   50    46    50    1
   51    50    51    1
   52    50    52    1
   53    52    53    1
   54    24    54    1
   55    50    54    1
   56    54    55    1
   57    54    56    1
   58    56    57    1
   59    43    58    1
   60    56    58    1
   61    56    59    1
   62    59    60    1
   63    59    61    1
   64    59    62    1
   65    62    63    1
   66    64    65    1
   67    64    66    1
   68    64    67    1
   69    67    68    1
   70    67    69    1
   71    69    70    1
   72    67    71    1
   73    71    72    1
   74    71    73    1
   75    73    74    1
   76    45    75    1
   77    71    75    1
   78    75    76    1
   79    75    77    1
   80    77    78    1
   81    64    79    1
   82    77    79    1
   83    77    80    1
   84    80    81    1
   85    80    82    1
   86    80    83    1
   87    83    84    1
   88    85    86    1
   89    85    87    1
   90    85    88    1
   91    88    89    1
   92    88    90    1
   93    90    91    1
   94    88    92    1
   95    92    93    1
   96    92    94    1
   97    94    95    1
   98    66    96    1
   99    92    96    1
  100    96    97    1
  101    96    98    1
  102    98    99    1
  103    85   100    1
  104    98   100    1
  105    98   101    1
  106   101   102    1
  107   101   103    1
  108   101   104    1
  109   104   105    1
  110   106   107    1
  111    12   108    1
  112   106   108    1
  113   106   109    1
  114   109   110    1
  115   109   111    1
  116   111   112    1
  117   109   113    1
  118   113   114    1
  119   113   115    1
  120   115   116    1
  121    87   117    1
  122   113   117    1
  123   117   118    1
  124   117   119    1
  125   119   120    1
  126   106   121    1
  127   119   121    1
  128   119   122    1
  129   122   123    1
  130   122   124    1
  131   122   125    1
  132   125   126    1
  133   127   128    1
  134   127   129    1
  135   127   130    1
  136   127   131    1
  137   131   132    1
  138   131   133    1
  139   131   134    1
  140   134   135    1
  141   134   136    1
  142   134   137    1
  143   137   138    1
  144   137   139    1
  145   137   140    1
  146   140   141    1
  147   140   142    1
  148   140   143    1
  149   143   144    1
  150   143   145    1
  151   143   146    1
@<TRIPOS>SUBSTRUCTURE
       1 MOL1            1 RESIDUE      1      MOL     
       2 MOL1          146 RESIDUE      1      MOL     
@<SCITEGIC>MOL_PROPERTY
VM2 Rank
SciTegic.value.IntegerValue
2

@<SCITEGIC>MOL_PROPERTY
Conf_Id
SciTegic.value.IntegerValue
17506

@<SCITEGIC>MOL_PROPERTY
Probability
SciTegic.value.DoubleValue
1.92

@<SCITEGIC>MOL_PROPERTY
Sum Probability
SciTegic.value.DoubleValue
4.87

@<SCITEGIC>MOL_PROPERTY
Delta G
SciTegic.value.DoubleValue
0.255

@<SCITEGIC>MOL_PROPERTY
G
SciTegic.value.DoubleValue
548.054

@<SCITEGIC>MOL_PROPERTY
E
SciTegic.value.DoubleValue
354.918

@<SCITEGIC>MOL_PROPERTY
-TS
SciTegic.value.DoubleValue
193.136

@<SCITEGIC>MOL_PROPERTY
U+W
SciTegic.value.DoubleValue
226.147

@<SCITEGIC>MOL_PROPERTY
U
SciTegic.value.DoubleValue
294.506

@<SCITEGIC>MOL_PROPERTY
W
SciTegic.value.DoubleValue
-68.358

@<SCITEGIC>MOL_PROPERTY
W(PB)
SciTegic.value.DoubleValue
-74.288

@<SCITEGIC>MOL_PROPERTY
W(SA)
SciTegic.value.DoubleValue
5.929

@<SCITEGIC>MOL_PROPERTY
Valence
SciTegic.value.DoubleValue
146.165

@<SCITEGIC>MOL_PROPERTY
Coulomb
SciTegic.value.DoubleValue
172.654

@<SCITEGIC>MOL_PROPERTY
VdW
SciTegic.value.DoubleValue
-24.314

@<SCITEGIC>MOL_PROPERTY
VdW6
SciTegic.value.DoubleValue
-173.283

@<SCITEGIC>MOL_PROPERTY
VdW12
SciTegic.value.DoubleValue
148.969

@<SCITEGIC>MOL_PROPERTY
Bond
SciTegic.value.DoubleValue
4.310

@<SCITEGIC>MOL_PROPERTY
Angle
SciTegic.value.DoubleValue
9.928

@<SCITEGIC>MOL_PROPERTY
Pdih
SciTegic.value.DoubleValue
131.928

@<SCITEGIC>MOL_PROPERTY
Idih
SciTegic.value.DoubleValue
0.000

@<SCITEGIC>MOL_PROPERTY
Tether
SciTegic.value.DoubleValue
0.000

@<TRIPOS>MOLECULE
CD_guest-s11_vm2_single.mol2 : vm2 host+ligand conformer 3
         146         151           2
SMALL
USER_CHARGES
 
@<TRIPOS>ATOM
       1    C1      16.186697   15.009027   20.556982 C.3        1 MOL1         0.2972
       2    H1      15.131785   14.896285   20.275103 H          1 MOL1         0.0751
       3    O1      16.515457   16.382200   20.858502 O.3        1 MOL1        -0.3740
       4    C2      16.551342   14.104842   21.762378 C.3        1 MOL1         0.1003
       5    H2      16.434518   13.064948   21.430209 H          1 MOL1         0.0783
       6    O2      15.689037   14.326554   22.887455 O.3        1 MOL1        -0.5519
       7    H3      15.837625   15.258859   23.186863 H          1 MOL1         0.3769
       8    C3      18.032849   14.313227   22.158375 C.3        1 MOL1         0.1053
       9    H4      18.138610   15.335306   22.548766 H          1 MOL1         0.0783
      10    O3      18.377727   13.368517   23.177740 O.3        1 MOL1        -0.5519
      11    H5      17.589963   13.330868   23.766940 H          1 MOL1         0.3769
      12    C4      18.980780   14.163918   20.933515 C.3        1 MOL1         0.1018
      13    H6      19.138289   13.099101   20.715495 H          1 MOL1         0.0783
      14    C5      18.449537   14.860065   19.650002 C.3        1 MOL1         0.1043
      15    H7      18.611832   15.939611   19.746204 H          1 MOL1         0.0783
      16    O4      17.037569   14.586844   19.472064 O.3        1 MOL1        -0.3740
      17    C6      19.187875   14.379382   18.383904 C.3        1 MOL1         0.0138
      18    H8      18.977969   13.313408   18.223377 H          1 MOL1         0.0794
      19    H9      20.270440   14.488305   18.533895 H          1 MOL1         0.0794
      20    O5      18.772326   15.149489   17.254029 O.3        1 MOL1        -0.5486
      21    H10     17.791593   15.088408   17.228578 H          1 MOL1         0.3769
      22    C7      15.014453   20.090487   21.820888 C.3        1 MOL1         0.2972
      23    H11     14.406446   20.956579   22.111200 H          1 MOL1         0.0751
      24    O6      16.289130   20.492895   21.276236 O.3        1 MOL1        -0.3740
      25    C8      15.257114   19.172652   23.045703 C.3        1 MOL1         0.1003
      26    H12     14.272646   18.843473   23.403023 H          1 MOL1         0.0783
      27    O7      15.934319   19.871584   24.102922 O.3        1 MOL1        -0.5519
      28    H13     15.817357   20.837510   23.932784 H          1 MOL1         0.3769
      29    C9      16.068911   17.921070   22.643335 C.3        1 MOL1         0.1053
      30    H14     17.081775   18.249323   22.387031 H          1 MOL1         0.0783
      31    O8      16.128573   17.030214   23.760012 O.3        1 MOL1        -0.5519
      32    H15     16.354306   17.607854   24.523927 H          1 MOL1         0.3769
      33    C10     15.468719   17.205987   21.404935 C.3        1 MOL1         0.1018
      34    H16     14.599300   16.614659   21.721785 H          1 MOL1         0.0783
      35    C11     15.060245   18.194007   20.275877 C.3        1 MOL1         0.1043
      36    H17     15.975796   18.562348   19.794736 H          1 MOL1         0.0783
      37    O9      14.320809   19.312190   20.823691 O.3        1 MOL1        -0.3740
      38    C12     14.189927   17.541815   19.178726 C.3        1 MOL1         0.0138
      39    H18     14.776687   16.764168   18.671916 H          1 MOL1         0.0794
      40    H19     13.938802   18.302773   18.427714 H          1 MOL1         0.0794
      41    O10     12.997558   16.977273   19.731658 O.3        1 MOL1        -0.5486
      42    H20     12.531881   17.711475   20.190727 H          1 MOL1         0.3769
      43    C13     18.514298   23.997321   20.941165 C.3        1 MOL1         0.2972
      44    H21     18.875632   25.008599   20.713385 H          1 MOL1         0.0751
      45    O11     19.578776   23.133464   21.381202 O.3        1 MOL1        -0.3740
      46    C14     17.436297   24.028742   22.051747 C.3        1 MOL1         0.1003
      47    H22     16.601131   24.635443   21.678128 H          1 MOL1         0.0783
      48    O12     17.942473   24.622254   23.258171 O.3        1 MOL1        -0.5519
      49    H23     18.798460   24.173220   23.476206 H          1 MOL1         0.3769
      50    C15     16.902080   22.602784   22.331899 C.3        1 MOL1         0.1053
      51    H24     17.717892   22.011360   22.770365 H          1 MOL1         0.0783
      52    O13     15.819201   22.699579   23.263943 O.3        1 MOL1        -0.5519
      53    H25     16.107215   23.380661   23.914085 H          1 MOL1         0.3769
      54    C16     16.449814   21.902436   21.017661 C.3        1 MOL1         0.1018
      55    H26     15.510205   22.349814   20.666691 H          1 MOL1         0.0783
      56    C17     17.506687   22.027102   19.885548 C.3        1 MOL1         0.1043
      57    H27     18.368425   21.394107   20.129618 H          1 MOL1         0.0783
      58    O14     17.911987   23.412790   19.768978 O.3        1 MOL1        -0.3740
      59    C18     16.938833   21.584281   18.516859 C.3        1 MOL1         0.0138
      60    H28     16.206183   22.330835   18.182137 H          1 MOL1         0.0794
      61    H29     16.405281   20.632560   18.639372 H          1 MOL1         0.0794
      62    O15     17.977688   21.429668   17.541250 O.3        1 MOL1        -0.5486
      63    H30     17.555730   21.524635   16.659763 H          1 MOL1         0.3769
      64    C19     23.619894   22.909877   21.975028 C.3        1 MOL1         0.2972
      65    H31     24.697457   23.040134   22.138409 H          1 MOL1         0.0751
      66    O16     23.283306   21.544701   21.656047 O.3        1 MOL1        -0.3740
      67    C20     22.831713   23.325554   23.241170 C.3        1 MOL1         0.1003
      68    H32     23.009441   24.396447   23.404867 H          1 MOL1         0.0783
      69    O17     23.275411   22.591517   24.393285 O.3        1 MOL1        -0.5519
      70    H33     23.792138   21.814439   24.064502 H          1 MOL1         0.3769
      71    C21     21.315898   23.118730   23.023777 C.3        1 MOL1         0.1053
      72    H34     21.135838   22.039764   22.964576 H          1 MOL1         0.0783
      73    O18     20.594968   23.656845   24.135933 O.3        1 MOL1        -0.5519
      74    H35     21.079383   23.334548   24.928957 H          1 MOL1         0.3769
      75    C22     20.824007   23.776209   21.708093 C.3        1 MOL1         0.1018
      76    H36     20.697207   24.852125   21.888318 H          1 MOL1         0.0783
      77    C23     21.776769   23.546576   20.498764 C.3        1 MOL1         0.1043
      78    H37     21.637798   22.515243   20.148360 H          1 MOL1         0.0783
      79    O19     23.159155   23.743511   20.891851 O.3        1 MOL1        -0.3740
      80    C24     21.488871   24.480067   19.301910 C.3        1 MOL1         0.0138
      81    H38     20.487378   24.261023   18.908013 H          1 MOL1         0.0794
      82    H39     22.207793   24.259807   18.501417 H          1 MOL1         0.0794
      83    O20     21.579545   25.855044   19.686264 O.3        1 MOL1        -0.5486
      84    H40     22.484961   25.981246   20.048013 H          1 MOL1         0.3769
      85    C25     24.896780   17.799482   20.928036 C.3        1 MOL1         0.2972
      86    H41     25.533564   16.951991   20.643624 H          1 MOL1         0.0751
      87    O21     23.535514   17.379338   21.155847 O.3        1 MOL1        -0.3740
      88    C26     25.457220   18.519712   22.187668 C.3        1 MOL1         0.1003
      89    H42     26.463512   18.875273   21.930634 H          1 MOL1         0.0783
      90    O22     25.552555   17.641076   23.318876 O.3        1 MOL1        -0.5519
      91    H43     24.628282   17.369524   23.549861 H          1 MOL1         0.3769
      92    C27     24.596587   19.753701   22.547618 C.3        1 MOL1         0.1053
      93    H44     23.614370   19.392707   22.882739 H          1 MOL1         0.0783
      94    O23     25.226954   20.485535   23.603059 O.3        1 MOL1        -0.5519
      95    H45     25.538892   19.802843   24.238992 H          1 MOL1         0.3769
      96    C28     24.378753   20.675346   21.321019 C.3        1 MOL1         0.1018
      97    H46     25.299546   21.232072   21.101079 H          1 MOL1         0.0783
      98    C29     23.954981   19.882448   20.059166 C.3        1 MOL1         0.1043
      99    H47     22.932663   19.521098   20.209958 H          1 MOL1         0.0783
     100    O24     24.863776   18.770957   19.861225 O.3        1 MOL1        -0.3740
     101    C30     23.971179   20.738483   18.776552 C.3        1 MOL1         0.0138
     102    H48     25.009156   20.983220   18.514215 H          1 MOL1         0.0794
     103    H49     23.443207   21.682421   18.960264 H          1 MOL1         0.0794
     104    O25     23.333093   20.026009   17.713530 O.3        1 MOL1        -0.5486
     105    H50     23.811077   19.171494   17.631348 H          1 MOL1         0.3769
     106    C31     21.202569   14.053062   21.964079 C.3        1 MOL1         0.2972
     107    H51     20.809626   13.070914   22.256731 H          1 MOL1         0.0751
     108    O26     20.220878   14.827020   21.246634 O.3        1 MOL1        -0.3740
     109    C32     21.661862   14.847617   23.215521 C.3        1 MOL1         0.1003
     110    H52     22.448809   14.257306   23.702800 H          1 MOL1         0.0783
     111    O27     20.584602   15.055250   24.143333 O.3        1 MOL1        -0.5519
     112    H53     19.877571   14.402208   23.922331 H          1 MOL1         0.3769
     113    C33     22.262396   16.211238   22.808299 C.3        1 MOL1         0.1053
     114    H54     21.447230   16.821876   22.402353 H          1 MOL1         0.0783
     115    O28     22.815813   16.846551   23.965239 O.3        1 MOL1        -0.5519
     116    H55     22.126042   16.738551   24.658110 H          1 MOL1         0.3769
     117    C34     23.343708   16.063196   21.710491 C.3        1 MOL1         0.1018
     118    H56     24.260482   15.670903   22.169625 H          1 MOL1         0.0783
     119    C35     22.893830   15.125263   20.554898 C.3        1 MOL1         0.1043
     120    H57     22.123772   15.644143   19.968508 H          1 MOL1         0.0783
     121    O29     22.349001   13.897051   21.100578 O.3        1 MOL1        -0.3740
     122    C36     24.035671   14.744318   19.586299 C.3        1 MOL1         0.0138
     123    H58     24.375904   15.646852   19.061699 H          1 MOL1         0.0794
     124    H59     23.639736   14.056833   18.826836 H          1 MOL1         0.0794
     125    O30     25.127657   14.138055   20.283557 O.3        1 MOL1        -0.5486
     126    H60     24.759209   13.351001   20.743228 H          1 MOL1         0.3769
     127    N1      19.522688   18.943101   16.951529 N.4        1 MOL1        -0.5919
     128    H1      19.215153   19.927692   16.949621 H          1 MOL1         0.3682
     129    H2      20.518425   18.929765   16.708035 H          1 MOL1         0.3682
     130    H3      19.012149   18.460631   16.205521 H          1 MOL1         0.3682
     131    C1      19.261278   18.322427   18.304749 C.3        1 MOL1         0.0252
     132    H4      19.473697   17.251939   18.244304 H          1 MOL1         0.0971
     133    H5      18.199480   18.456245   18.528572 H          1 MOL1         0.0971
     134    C2      20.113131   18.964761   19.409186 C.3        1 MOL1        -0.1369
     135    H6      21.143241   18.596812   19.326103 H          1 MOL1         0.0997
     136    H7      20.145594   20.052045   19.254271 H          1 MOL1         0.0997
     137    C3      19.550402   18.669021   20.814307 C.3        1 MOL1        -0.1329
     138    H8      19.582987   17.590616   21.018461 H          1 MOL1         0.0997
     139    H9      18.495890   18.970081   20.844160 H          1 MOL1         0.0997
     140    C4      20.329244   19.433190   21.904405 C.3        1 MOL1        -0.1305
     141    H10     21.378542   19.110819   21.909682 H          1 MOL1         0.0997
     142    H11     20.329017   20.502621   21.661259 H          1 MOL1         0.0997
     143    C5      19.722189   19.227205   23.307659 C.3        1 MOL1        -0.2320
     144    H12     19.674387   18.161526   23.568726 H          1 MOL1         0.1008
     145    H13     20.329443   19.733727   24.068924 H          1 MOL1         0.1008
     146    H14     18.706679   19.640077   23.362575 H          1 MOL1         0.1008
@<TRIPOS>BOND
    1     1     2    1
    2     1     3    1
    3     1     4    1
    4     4     5    1
    5     4     6    1
    6     6     7    1
    7     4     8    1
    8     8     9    1
    9     8    10    1
   10    10    11    1
   11     8    12    1
   12    12    13    1
   13    12    14    1
   14    14    15    1
   15     1    16    1
   16    14    16    1
   17    14    17    1
   18    17    18    1
   19    17    19    1
   20    17    20    1
   21    20    21    1
   22    22    23    1
   23    22    24    1
   24    22    25    1
   25    25    26    1
   26    25    27    1
   27    27    28    1
   28    25    29    1
   29    29    30    1
   30    29    31    1
   31    31    32    1
   32     3    33    1
   33    29    33    1
   34    33    34    1
   35    33    35    1
   36    35    36    1
   37    22    37    1
   38    35    37    1
   39    35    38    1
   40    38    39    1
   41    38    40    1
   42    38    41    1
   43    41    42    1
   44    43    44    1
   45    43    45    1
   46    43    46    1
   47    46    47    1
   48    46    48    1
   49    48    49    1
   50    46    50    1
   51    50    51    1
   52    50    52    1
   53    52    53    1
   54    24    54    1
   55    50    54    1
   56    54    55    1
   57    54    56    1
   58    56    57    1
   59    43    58    1
   60    56    58    1
   61    56    59    1
   62    59    60    1
   63    59    61    1
   64    59    62    1
   65    62    63    1
   66    64    65    1
   67    64    66    1
   68    64    67    1
   69    67    68    1
   70    67    69    1
   71    69    70    1
   72    67    71    1
   73    71    72    1
   74    71    73    1
   75    73    74    1
   76    45    75    1
   77    71    75    1
   78    75    76    1
   79    75    77    1
   80    77    78    1
   81    64    79    1
   82    77    79    1
   83    77    80    1
   84    80    81    1
   85    80    82    1
   86    80    83    1
   87    83    84    1
   88    85    86    1
   89    85    87    1
   90    85    88    1
   91    88    89    1
   92    88    90    1
   93    90    91    1
   94    88    92    1
   95    92    93    1
   96    92    94    1
   97    94    95    1
   98    66    96    1
   99    92    96    1
  100    96    97    1
  101    96    98    1
  102    98    99    1
  103    85   100    1
  104    98   100    1
  105    98   101    1
  106   101   102    1
  107   101   103    1
  108   101   104    1
  109   104   105    1
  110   106   107    1
  111    12   108    1
  112   106   108    1
  113   106   109    1
  114   109   110    1
  115   109   111    1
  116   111   112    1
  117   109   113    1
  118   113   114    1
  119   113   115    1
  120   115   116    1
  121    87   117    1
  122   113   117    1
  123   117   118    1
  124   117   119    1
  125   119   120    1
  126   106   121    1
  127   119   121    1
  128   119   122    1
  129   122   123    1
  130   122   124    1
  131   122   125    1
  132   125   126    1
  133   127   128    1
  134   127   129    1
  135   127   130    1
  136   127   131    1
  137   131   132    1
  138   131   133    1
  139   131   134    1
  140   134   135    1
  141   134   136    1
  142   134   137    1
  143   137   138    1
  144   137   139    1
  145   137   140    1
  146   140   141    1
  147   140   142    1
  148   140   143    1
  149   143   144    1
  150   143   145    1
  151   143   146    1
@<TRIPOS>SUBSTRUCTURE
       1 MOL1            1 RESIDUE      1      MOL     
       2 MOL1          146 RESIDUE      1      MOL     
@<SCITEGIC>MOL_PROPERTY
VM2 Rank
SciTegic.value.IntegerValue
3

@<SCITEGIC>MOL_PROPERTY
Conf_Id
SciTegic.value.IntegerValue
19268

@<SCITEGIC>MOL_PROPERTY
Probability
SciTegic.value.DoubleValue
1.49

@<SCITEGIC>MOL_PROPERTY
Sum Probability
SciTegic.value.DoubleValue
6.36

@<SCITEGIC>MOL_PROPERTY
Delta G
SciTegic.value.DoubleValue
0.409

@<SCITEGIC>MOL_PROPERTY
G
SciTegic.value.DoubleValue
548.207

@<SCITEGIC>MOL_PROPERTY
E
SciTegic.value.DoubleValue
356.052

@<SCITEGIC>MOL_PROPERTY
-TS
SciTegic.value.DoubleValue
192.156

@<SCITEGIC>MOL_PROPERTY
U+W
SciTegic.value.DoubleValue
227.281

@<SCITEGIC>MOL_PROPERTY
U
SciTegic.value.DoubleValue
300.954

@<SCITEGIC>MOL_PROPERTY
W
SciTegic.value.DoubleValue
-73.673

@<SCITEGIC>MOL_PROPERTY
W(PB)
SciTegic.value.DoubleValue
-79.610

@<SCITEGIC>MOL_PROPERTY
W(SA)
SciTegic.value.DoubleValue
5.937

@<SCITEGIC>MOL_PROPERTY
Valence
SciTegic.value.DoubleValue
145.532

@<SCITEGIC>MOL_PROPERTY
Coulomb
SciTegic.value.DoubleValue
179.915

@<SCITEGIC>MOL_PROPERTY
VdW
SciTegic.value.DoubleValue
-24.493

@<SCITEGIC>MOL_PROPERTY
VdW6
SciTegic.value.DoubleValue
-172.776

@<SCITEGIC>MOL_PROPERTY
VdW12
SciTegic.value.DoubleValue
148.283

@<SCITEGIC>MOL_PROPERTY
Bond
SciTegic.value.DoubleValue
4.302

@<SCITEGIC>MOL_PROPERTY
Angle
SciTegic.value.DoubleValue
9.788

@<SCITEGIC>MOL_PROPERTY
Pdih
SciTegic.value.DoubleValue
131.442

@<SCITEGIC>MOL_PROPERTY
Idih
SciTegic.value.DoubleValue
0.000

@<SCITEGIC>MOL_PROPERTY
Tether
SciTegic.value.DoubleValue
0.000

@<TRIPOS>MOLECULE
CD_guest-s11_vm2_single.mol2 : vm2 host+ligand conformer 4
         146         151           2
SMALL
USER_CHARGES
 
@<TRIPOS>ATOM
       1    C1      16.169111   14.994773   20.615463 C.3        1 MOL1         0.2972
       2    H1      15.109140   14.882918   20.352832 H          1 MOL1         0.0751
       3    O1      16.508335   16.369784   20.896206 O.3        1 MOL1        -0.3740
       4    C2      16.550141   14.104469   21.825663 C.3        1 MOL1         0.1003
       5    H2      16.422086   13.060965   21.509328 H          1 MOL1         0.0783
       6    O2      15.708685   14.346412   22.962394 O.3        1 MOL1        -0.5519
       7    H3      15.861620   15.284140   23.242231 H          1 MOL1         0.3769
       8    C3      18.039166   14.309975   22.193929 C.3        1 MOL1         0.1053
       9    H4      18.155073   15.334578   22.574806 H          1 MOL1         0.0783
      10    O3      18.396792   13.371113   23.214285 O.3        1 MOL1        -0.5519
      11    H5      17.619163   13.342156   23.817323 H          1 MOL1         0.3769
      12    C4      18.967352   14.147525   20.955481 C.3        1 MOL1         0.1018
      13    H6      19.123276   13.080298   20.748395 H          1 MOL1         0.0783
      14    C5      18.415121   14.826140   19.671377 C.3        1 MOL1         0.1043
      15    H7      18.582083   15.906406   19.748510 H          1 MOL1         0.0783
      16    O4      16.999593   14.555290   19.521881 O.3        1 MOL1        -0.3740
      17    C6      19.129691   14.324074   18.399942 C.3        1 MOL1         0.0138
      18    H8      18.918710   13.255074   18.262609 H          1 MOL1         0.0794
      19    H9      20.214767   14.437345   18.527082 H          1 MOL1         0.0794
      20    O5      18.690664   15.072872   17.264644 O.3        1 MOL1        -0.5486
      21    H10     17.709734   15.009781   17.259845 H          1 MOL1         0.3769
      22    C7      15.024661   20.098804   21.802511 C.3        1 MOL1         0.2972
      23    H11     14.421098   20.972168   22.079592 H          1 MOL1         0.0751
      24    O6      16.298346   20.485626   21.244608 O.3        1 MOL1        -0.3740
      25    C8      15.272772   19.202750   23.042305 C.3        1 MOL1         0.1003
      26    H12     14.289934   18.882958   23.412406 H          1 MOL1         0.0783
      27    O7      15.959478   19.919802   24.081198 O.3        1 MOL1        -0.5519
      28    H13     15.826599   20.882352   23.904639 H          1 MOL1         0.3769
      29    C9      16.078999   17.941887   22.656727 C.3        1 MOL1         0.1053
      30    H14     17.091178   18.262945   22.388085 H          1 MOL1         0.0783
      31    O8      16.143901   17.069669   23.787786 O.3        1 MOL1        -0.5519
      32    H15     16.377783   17.658973   24.540220 H          1 MOL1         0.3769
      33    C10     15.468172   17.206468   21.435489 C.3        1 MOL1         0.1018
      34    H16     14.599687   16.623354   21.769714 H          1 MOL1         0.0783
      35    C11     15.053640   18.174593   20.291613 C.3        1 MOL1         0.1043
      36    H17     15.966319   18.531279   19.796890 H          1 MOL1         0.0783
      37    O9      14.321962   19.304788   20.824311 O.3        1 MOL1        -0.3740
      38    C12     14.172977   17.505191   19.213201 C.3        1 MOL1         0.0138
      39    H18     14.753928   16.717572   18.715186 H          1 MOL1         0.0794
      40    H19     13.917204   18.253450   18.451067 H          1 MOL1         0.0794
      41    O10     12.984075   16.952924   19.785653 O.3        1 MOL1        -0.5486
      42    H20     12.522930   17.696226   20.234531 H          1 MOL1         0.3769
      43    C13     18.541341   23.982952   20.870985 C.3        1 MOL1         0.2972
      44    H21     18.905435   24.988957   20.625220 H          1 MOL1         0.0751
      45    O11     19.601211   23.129950   21.339653 O.3        1 MOL1        -0.3740
      46    C14     17.448221   24.036037   21.967945 C.3        1 MOL1         0.1003
      47    H22     16.620279   24.638871   21.572648 H          1 MOL1         0.0783
      48    O12     17.940361   24.649030   23.170520 O.3        1 MOL1        -0.5519
      49    H23     18.774944   24.179381   23.425009 H          1 MOL1         0.3769
      50    C15     16.903617   22.617554   22.270092 C.3        1 MOL1         0.1053
      51    H24     17.711208   22.033572   22.733164 H          1 MOL1         0.0783
      52    O13     15.808284   22.737534   23.184653 O.3        1 MOL1        -0.5519
      53    H25     16.088581   23.432314   23.823558 H          1 MOL1         0.3769
      54    C16     16.470043   21.889515   20.964241 C.3        1 MOL1         0.1018
      55    H26     15.541670   22.333821   20.581095 H          1 MOL1         0.0783
      56    C17     17.558008   21.983515   19.861770 C.3        1 MOL1         0.1043
      57    H27     18.415003   21.367947   20.160535 H          1 MOL1         0.0783
      58    O14     17.960011   23.366000   19.703262 O.3        1 MOL1        -0.3740
      59    C18     17.057067   21.481380   18.490641 C.3        1 MOL1         0.0138
      60    H28     16.232086   22.121080   18.149712 H          1 MOL1         0.0794
      61    H29     16.665016   20.461965   18.599535 H          1 MOL1         0.0794
      62    O15     18.127688   21.494061   17.541733 O.3        1 MOL1        -0.5486
      63    H30     18.479771   22.412065   17.550598 H          1 MOL1         0.3769
      64    C19     23.606015   22.891526   22.050442 C.3        1 MOL1         0.2972
      65    H31     24.679240   23.002779   22.252067 H          1 MOL1         0.0751
      66    O16     23.267443   21.545058   21.658198 O.3        1 MOL1        -0.3740
      67    C20     22.783324   23.262093   23.308501 C.3        1 MOL1         0.1003
      68    H32     22.962128   24.324553   23.519467 H          1 MOL1         0.0783
      69    O17     23.186806   22.479286   24.443340 O.3        1 MOL1        -0.5519
      70    H33     23.744447   21.736307   24.103140 H          1 MOL1         0.3769
      71    C21     21.274344   23.073727   23.037582 C.3        1 MOL1         0.1053
      72    H34     21.093033   21.998884   22.930559 H          1 MOL1         0.0783
      73    O18     20.520249   23.569557   24.147781 O.3        1 MOL1        -0.5519
      74    H35     20.979073   23.213623   24.941592 H          1 MOL1         0.3769
      75    C22     20.821897   23.781566   21.734184 C.3        1 MOL1         0.1018
      76    H36     20.669122   24.846112   21.956452 H          1 MOL1         0.0783
      77    C23     21.817254   23.617145   20.547655 C.3        1 MOL1         0.1043
      78    H37     21.690581   22.604207   20.143739 H          1 MOL1         0.0783
      79    O19     23.188050   23.778262   20.993654 O.3        1 MOL1        -0.3740
      80    C24     21.562563   24.599960   19.379773 C.3        1 MOL1         0.0138
      81    H38     20.639137   24.299986   18.866355 H          1 MOL1         0.0794
      82    H39     22.382799   24.502915   18.655882 H          1 MOL1         0.0794
      83    O20     21.451312   25.956516   19.827933 O.3        1 MOL1        -0.5486
      84    H40     21.373476   26.527951   19.032848 H          1 MOL1         0.3769
      85    C25     24.891295   17.811817   20.893463 C.3        1 MOL1         0.2972
      86    H41     25.528646   16.967089   20.602082 H          1 MOL1         0.0751
      87    O21     23.528767   17.388843   21.111557 O.3        1 MOL1        -0.3740
      88    C26     25.449419   18.519610   22.161102 C.3        1 MOL1         0.1003
      89    H42     26.452768   18.884917   21.906172 H          1 MOL1         0.0783
      90    O22     25.554567   17.629127   23.281902 O.3        1 MOL1        -0.5519
      91    H43     24.631785   17.358339   23.519381 H          1 MOL1         0.3769
      92    C27     24.581440   19.743784   22.535712 C.3        1 MOL1         0.1053
      93    H44     23.599069   19.374525   22.861114 H          1 MOL1         0.0783
      94    O23     25.205138   20.462324   23.604321 O.3        1 MOL1        -0.5519
      95    H45     25.522901   19.770937   24.227971 H          1 MOL1         0.3769
      96    C28     24.366690   20.681208   21.320510 C.3        1 MOL1         0.1018
      97    H46     25.286916   21.244485   21.115173 H          1 MOL1         0.0783
      98    C29     23.957053   19.907021   20.041162 C.3        1 MOL1         0.1043
      99    H47     22.930311   19.546024   20.165704 H          1 MOL1         0.0783
     100    O24     24.864807   18.795400   19.837473 O.3        1 MOL1        -0.3740
     101    C30     24.001197   20.786713   18.775392 C.3        1 MOL1         0.0138
     102    H48     25.044682   21.036871   18.541489 H          1 MOL1         0.0794
     103    H49     23.468377   21.726902   18.965113 H          1 MOL1         0.0794
     104    O25     23.389136   20.094615   17.684684 O.3        1 MOL1        -0.5486
     105    H50     23.861960   19.236980   17.604143 H          1 MOL1         0.3769
     106    C31     21.206951   14.053870   21.950196 C.3        1 MOL1         0.2972
     107    H51     20.824801   13.069756   22.250498 H          1 MOL1         0.0751
     108    O26     20.211557   14.816697   21.239758 O.3        1 MOL1        -0.3740
     109    C32     21.674700   14.856165   23.193889 C.3        1 MOL1         0.1003
     110    H52     22.470308   14.272075   23.674574 H          1 MOL1         0.0783
     111    O27     20.607697   15.061842   24.133760 O.3        1 MOL1        -0.5519
     112    H53     19.903060   14.401738   23.926627 H          1 MOL1         0.3769
     113    C33     22.263358   16.221623   22.776184 C.3        1 MOL1         0.1053
     114    H54     21.441561   16.825505   22.373895 H          1 MOL1         0.0783
     115    O28     22.820351   16.863661   23.927492 O.3        1 MOL1        -0.5519
     116    H55     22.135914   16.752330   24.625224 H          1 MOL1         0.3769
     117    C34     23.337122   16.073899   21.670815 C.3        1 MOL1         0.1018
     118    H56     24.256421   15.679929   22.123338 H          1 MOL1         0.0783
     119    C35     22.877534   15.133875   20.521067 C.3        1 MOL1         0.1043
     120    H57     22.098264   15.648950   19.943535 H          1 MOL1         0.0783
     121    O29     22.344969   13.903384   21.074291 O.3        1 MOL1        -0.3740
     122    C36     24.010402   14.757966   19.540052 C.3        1 MOL1         0.0138
     123    H58     24.342893   15.662652   19.014125 H          1 MOL1         0.0794
     124    H59     23.608650   14.070924   18.783253 H          1 MOL1         0.0794
     125    O30     25.111106   14.153401   20.225014 O.3        1 MOL1        -0.5486
     126    H60     24.749150   13.365247   20.687947 H          1 MOL1         0.3769
     127    N1      19.315546   18.876737   16.891490 N.4        1 MOL1        -0.5919
     128    H1      18.775075   18.371715   16.182560 H          1 MOL1         0.3682
     129    H2      18.966515   19.850026   16.905841 H          1 MOL1         0.3682
     130    H3      20.290227   18.903963   16.577073 H          1 MOL1         0.3682
     131    C1      19.176948   18.246532   18.259379 C.3        1 MOL1         0.0252
     132    H4      19.437436   17.187708   18.182579 H          1 MOL1         0.0971
     133    H5      18.125883   18.324795   18.549690 H          1 MOL1         0.0971
     134    C2      20.060760   18.926565   19.317407 C.3        1 MOL1        -0.1369
     135    H6      21.096419   18.580711   19.204234 H          1 MOL1         0.0997
     136    H7      20.066106   20.010949   19.143551 H          1 MOL1         0.0997
     137    C3      19.550298   18.644585   20.745957 C.3        1 MOL1        -0.1329
     138    H8      19.600252   17.569368   20.962812 H          1 MOL1         0.0997
     139    H9      18.493889   18.934121   20.806783 H          1 MOL1         0.0997
     140    C4      20.353563   19.428395   21.803970 C.3        1 MOL1        -0.1305
     141    H10     21.398125   19.092380   21.803715 H          1 MOL1         0.0997
     142    H11     20.364741   20.491655   21.534596 H          1 MOL1         0.0997
     143    C5      19.763581   19.263541   23.220210 C.3        1 MOL1        -0.2320
     144    H12     18.754445   19.691522   23.279678 H          1 MOL1         0.1008
     145    H13     19.704615   18.204974   23.506535 H          1 MOL1         0.1008
     146    H14     20.388488   19.778102   23.961570 H          1 MOL1         0.1008
@<TRIPOS>BOND
    1     1     2    1
    2     1     3    1
    3     1     4    1
    4     4     5    1
    5     4     6    1
    6     6     7    1
    7     4     8    1
    8     8     9    1
    9     8    10    1
   10    10    11    1
   11     8    12    1
   12    12    13    1
   13    12    14    1
   14    14    15    1
   15     1    16    1
   16    14    16    1
   17    14    17    1
   18    17    18    1
   19    17    19    1
   20    17    20    1
   21    20    21    1
   22    22    23    1
   23    22    24    1
   24    22    25    1
   25    25    26    1
   26    25    27    1
   27    27    28    1
   28    25    29    1
   29    29    30    1
   30    29    31    1
   31    31    32    1
   32     3    33    1
   33    29    33    1
   34    33    34    1
   35    33    35    1
   36    35    36    1
   37    22    37    1
   38    35    37    1
   39    35    38    1
   40    38    39    1
   41    38    40    1
   42    38    41    1
   43    41    42    1
   44    43    44    1
   45    43    45    1
   46    43    46    1
   47    46    47    1
   48    46    48    1
   49    48    49    1
   50    46    50    1
   51    50    51    1
   52    50    52    1
   53    52    53    1
   54    24    54    1
   55    50    54    1
   56    54    55    1
   57    54    56    1
   58    56    57    1
   59    43    58    1
   60    56    58    1
   61    56    59    1
   62    59    60    1
   63    59    61    1
   64    59    62    1
   65    62    63    1
   66    64    65    1
   67    64    66    1
   68    64    67    1
   69    67    68    1
   70    67    69    1
   71    69    70    1
   72    67    71    1
   73    71    72    1
   74    71    73    1
   75    73    74    1
   76    45    75    1
   77    71    75    1
   78    75    76    1
   79    75    77    1
   80    77    78    1
   81    64    79    1
   82    77    79    1
   83    77    80    1
   84    80    81    1
   85    80    82    1
   86    80    83    1
   87    83    84    1
   88    85    86    1
   89    85    87    1
   90    85    88    1
   91    88    89    1
   92    88    90    1
   93    90    91    1
   94    88    92    1
   95    92    93    1
   96    92    94    1
   97    94    95    1
   98    66    96    1
   99    92    96    1
  100    96    97    1
  101    96    98    1
  102    98    99    1
  103    85   100    1
  104    98   100    1
  105    98   101    1
  106   101   102    1
  107   101   103    1
  108   101   104    1
  109   104   105    1
  110   106   107    1
  111    12   108    1
  112   106   108    1
  113   106   109    1
  114   109   110    1
  115   109   111    1
  116   111   112    1
  117   109   113    1
  118   113   114    1
  119   113   115    1
  120   115   116    1
  121    87   117    1
  122   113   117    1
  123   117   118    1
  124   117   119    1
  125   119   120    1
  126   106   121    1
  127   119   121    1
  128   119   122    1
  129   122   123    1
  130   122   124    1
  131   122   125    1
  132   125   126    1
  133   127   128    1
  134   127   129    1
  135   127   130    1
  136   127   131    1
  137   131   132    1
  138   131   133    1
  139   131   134    1
  140   134   135    1
  141   134   136    1
  142   134   137    1
  143   137   138    1
  144   137   139    1
  145   137   140    1
  146   140   141    1
  147   140   142    1
  148   140   143    1
  149   143   144    1
  150   143   145    1
  151   143   146    1
@<TRIPOS>SUBSTRUCTURE
       1 MOL1            1 RESIDUE      1      MOL     
       2 MOL1          146 RESIDUE      1      MOL     
@<SCITEGIC>MOL_PROPERTY
VM2 Rank
SciTegic.value.IntegerValue
4

@<SCITEGIC>MOL_PROPERTY
Conf_Id
SciTegic.value.IntegerValue
9492

@<SCITEGIC>MOL_PROPERTY
Probability
SciTegic.value.DoubleValue
1.47

@<SCITEGIC>MOL_PROPERTY
Sum Probability
SciTegic.value.DoubleValue
7.83

@<SCITEGIC>MOL_PROPERTY
Delta G
SciTegic.value.DoubleValue
0.414

@<SCITEGIC>MOL_PROPERTY
G
SciTegic.value.DoubleValue
548.212

@<SCITEGIC>MOL_PROPERTY
E
SciTegic.value.DoubleValue
354.970

@<SCITEGIC>MOL_PROPERTY
-TS
SciTegic.value.DoubleValue
193.242

@<SCITEGIC>MOL_PROPERTY
U+W
SciTegic.value.DoubleValue
226.199

@<SCITEGIC>MOL_PROPERTY
U
SciTegic.value.DoubleValue
297.420

@<SCITEGIC>MOL_PROPERTY
W
SciTegic.value.DoubleValue
-71.221

@<SCITEGIC>MOL_PROPERTY
W(PB)
SciTegic.value.DoubleValue
-77.173

@<SCITEGIC>MOL_PROPERTY
W(SA)
SciTegic.value.DoubleValue
5.953

@<SCITEGIC>MOL_PROPERTY
Valence
SciTegic.value.DoubleValue
145.288

@<SCITEGIC>MOL_PROPERTY
Coulomb
SciTegic.value.DoubleValue
176.232

@<SCITEGIC>MOL_PROPERTY
VdW
SciTegic.value.DoubleValue
-24.100

@<SCITEGIC>MOL_PROPERTY
VdW6
SciTegic.value.DoubleValue
-173.678

@<SCITEGIC>MOL_PROPERTY
VdW12
SciTegic.value.DoubleValue
149.577

@<SCITEGIC>MOL_PROPERTY
Bond
SciTegic.value.DoubleValue
4.337

@<SCITEGIC>MOL_PROPERTY
Angle
SciTegic.value.DoubleValue
10.037

@<SCITEGIC>MOL_PROPERTY
Pdih
SciTegic.value.DoubleValue
130.914

@<SCITEGIC>MOL_PROPERTY
Idih
SciTegic.value.DoubleValue
0.000

@<SCITEGIC>MOL_PROPERTY
Tether
SciTegic.value.DoubleValue
0.000

@<TRIPOS>MOLECULE
CD_guest-s11_vm2_single.mol2 : vm2 host+ligand conformer 5
         146         151           2
SMALL
USER_CHARGES
 
@<TRIPOS>ATOM
       1    C1      16.275499   15.264806   20.727434 C.3        1 MOL1         0.2972
       2    H1      15.239044   15.067992   20.423874 H          1 MOL1         0.0751
       3    O1      16.453936   16.622281   21.171302 O.3        1 MOL1        -0.3740
       4    C2      16.712217   14.318526   21.874419 C.3        1 MOL1         0.1003
       5    H2      16.631813   13.291341   21.495463 H          1 MOL1         0.0783
       6    O2      15.863648   14.458767   23.025055 O.3        1 MOL1        -0.5519
       7    H3      15.846426   15.419105   23.268454 H          1 MOL1         0.3769
       8    C3      18.191413   14.569183   22.260307 C.3        1 MOL1         0.1053
       9    H4      18.263227   15.571995   22.704022 H          1 MOL1         0.0783
      10    O3      18.582233   13.584826   23.224083 O.3        1 MOL1        -0.5519
      11    H5      17.803427   13.491673   23.819264 H          1 MOL1         0.3769
      12    C4      19.114835   14.528472   21.007789 C.3        1 MOL1         0.1018
      13    H6      19.217948   13.493578   20.654988 H          1 MOL1         0.0783
      14    C5      18.554787   15.394936   19.848689 C.3        1 MOL1         0.1043
      15    H7      18.640211   16.452136   20.127486 H          1 MOL1         0.0783
      16    O4      17.168708   15.043948   19.615909 O.3        1 MOL1        -0.3740
      17    C6      19.320547   15.180994   18.525478 C.3        1 MOL1         0.0138
      18    H8      19.198555   14.139099   18.200485 H          1 MOL1         0.0794
      19    H9      20.391168   15.353996   18.694565 H          1 MOL1         0.0794
      20    O5      18.832823   16.079753   17.524898 O.3        1 MOL1        -0.5486
      21    H10     17.862414   15.927227   17.480587 H          1 MOL1         0.3769
      22    C7      14.631292   20.215661   21.748628 C.3        1 MOL1         0.2972
      23    H11     13.994447   21.095220   21.909051 H          1 MOL1         0.0751
      24    O6      15.980848   20.583829   21.395304 O.3        1 MOL1        -0.3740
      25    C8      14.672129   19.342555   23.026643 C.3        1 MOL1         0.1003
      26    H12     13.653782   18.974716   23.207939 H          1 MOL1         0.0783
      27    O7      15.109672   20.102302   24.164329 O.3        1 MOL1        -0.5519
      28    H13     15.462616   20.961680   23.824468 H          1 MOL1         0.3769
      29    C9      15.593162   18.120867   22.814198 C.3        1 MOL1         0.1053
      30    H14     16.619861   18.495547   22.745305 H          1 MOL1         0.0783
      31    O8      15.488827   17.240102   23.936521 O.3        1 MOL1        -0.5519
      32    H15     15.539184   17.828945   24.722763 H          1 MOL1         0.3769
      33    C10     15.261095   17.353184   21.507757 C.3        1 MOL1         0.1018
      34    H16     14.410699   16.686414   21.703854 H          1 MOL1         0.0783
      35    C11     14.950302   18.277273   20.293097 C.3        1 MOL1         0.1043
      36    H17     15.904050   18.662280   19.908773 H          1 MOL1         0.0783
      37    O9      14.107080   19.388485   20.690162 O.3        1 MOL1        -0.3740
      38    C12     14.249128   17.546759   19.126440 C.3        1 MOL1         0.0138
      39    H18     14.926146   16.782632   18.722459 H          1 MOL1         0.0794
      40    H19     14.057329   18.269250   18.321801 H          1 MOL1         0.0794
      41    O10     13.024567   16.944533   19.554878 O.3        1 MOL1        -0.5486
      42    H20     12.473166   17.670956   19.922179 H          1 MOL1         0.3769
      43    C13     18.437314   23.849978   20.708903 C.3        1 MOL1         0.2972
      44    H21     18.863577   24.819665   20.422275 H          1 MOL1         0.0751
      45    O11     19.472817   22.890167   21.006578 O.3        1 MOL1        -0.3740
      46    C14     17.473471   24.001156   21.920308 C.3        1 MOL1         0.1003
      47    H22     16.670298   24.679967   21.605243 H          1 MOL1         0.0783
      48    O12     18.124765   24.561031   23.070326 O.3        1 MOL1        -0.5519
      49    H23     18.811639   23.907088   23.356422 H          1 MOL1         0.3769
      50    C15     16.828884   22.643339   22.285252 C.3        1 MOL1         0.1053
      51    H24     17.620627   21.986223   22.670845 H          1 MOL1         0.0783
      52    O13     15.834253   22.844595   23.293958 O.3        1 MOL1        -0.5519
      53    H25     16.236085   23.481550   23.927137 H          1 MOL1         0.3769
      54    C16     16.197267   21.962121   21.044590 C.3        1 MOL1         0.1018
      55    H26     15.261952   22.470273   20.773965 H          1 MOL1         0.0783
      56    C17     17.145164   21.972485   19.817538 C.3        1 MOL1         0.1043
      57    H27     17.964288   21.269180   20.002942 H          1 MOL1         0.0783
      58    O14     17.661955   23.311774   19.616910 O.3        1 MOL1        -0.3740
      59    C18     16.436201   21.543932   18.516901 C.3        1 MOL1         0.0138
      60    H28     15.709754   22.314784   18.226699 H          1 MOL1         0.0794
      61    H29     15.881637   20.613654   18.692640 H          1 MOL1         0.0794
      62    O15     17.402964   21.343811   17.483205 O.3        1 MOL1        -0.5486
      63    H30     17.910947   22.182343   17.416876 H          1 MOL1         0.3769
      64    C19     23.468610   22.573700   22.074241 C.3        1 MOL1         0.2972
      65    H31     24.493640   22.742723   22.428357 H          1 MOL1         0.0751
      66    O16     23.345648   21.314196   21.384026 O.3        1 MOL1        -0.3740
      67    C20     22.472834   22.605321   23.264207 C.3        1 MOL1         0.1003
      68    H32     22.552558   23.598181   23.725900 H          1 MOL1         0.0783
      69    O17     22.777013   21.602001   24.246763 O.3        1 MOL1        -0.5519
      70    H33     23.710075   21.316361   24.095158 H          1 MOL1         0.3769
      71    C21     21.022228   22.418274   22.768985 C.3        1 MOL1         0.1053
      72    H34     20.935820   21.396715   22.380636 H          1 MOL1         0.0783
      73    O18     20.124059   22.597651   23.868807 O.3        1 MOL1        -0.5519
      74    H35     20.526427   22.077881   24.600667 H          1 MOL1         0.3769
      75    C22     20.672989   23.399059   21.623537 C.3        1 MOL1         0.1018
      76    H36     20.527157   24.399764   22.050691 H          1 MOL1         0.0783
      77    C23     21.778824   23.454667   20.532014 C.3        1 MOL1         0.1043
      78    H37     21.755830   22.509612   19.973337 H          1 MOL1         0.0783
      79    O19     23.080852   23.613412   21.151697 O.3        1 MOL1        -0.3740
      80    C24     21.584681   24.596879   19.505985 C.3        1 MOL1         0.0138
      81    H38     20.732755   24.344195   18.860429 H          1 MOL1         0.0794
      82    H39     22.475171   24.646013   18.865048 H          1 MOL1         0.0794
      83    O20     21.356237   25.862037   20.139382 O.3        1 MOL1        -0.5486
      84    H40     21.333514   26.547748   19.436573 H          1 MOL1         0.3769
      85    C25     25.246220   17.715780   20.940289 C.3        1 MOL1         0.2972
      86    H41     25.886741   16.849039   20.731678 H          1 MOL1         0.0751
      87    O21     23.871823   17.326729   21.150859 O.3        1 MOL1        -0.3740
      88    C26     25.757126   18.516256   22.165271 C.3        1 MOL1         0.1003
      89    H42     26.741197   18.921722   21.895881 H          1 MOL1         0.0783
      90    O22     25.903704   17.690407   23.329402 O.3        1 MOL1        -0.5519
      91    H43     25.000530   17.359856   23.566105 H          1 MOL1         0.3769
      92    C27     24.815185   19.709215   22.456110 C.3        1 MOL1         0.1053
      93    H44     23.849915   19.304119   22.791454 H          1 MOL1         0.0783
      94    O23     25.390735   20.510100   23.494274 O.3        1 MOL1        -0.5519
      95    H45     25.769538   19.864293   24.133517 H          1 MOL1         0.3769
      96    C28     24.562161   20.568175   21.183396 C.3        1 MOL1         0.1018
      97    H46     25.418289   21.234274   21.011514 H          1 MOL1         0.0783
      98    C29     24.325449   19.724510   19.900173 C.3        1 MOL1         0.1043
      99    H47     23.303667   19.329571   19.925912 H          1 MOL1         0.0783
     100    O24     25.274570   18.632095   19.827477 O.3        1 MOL1        -0.3740
     101    C30     24.476814   20.568850   18.618218 C.3        1 MOL1         0.0138
     102    H48     25.514088   20.919868   18.534651 H          1 MOL1         0.0794
     103    H49     23.829097   21.453026   18.689788 H          1 MOL1         0.0794
     104    O25     24.116015   19.790803   17.475061 O.3        1 MOL1        -0.5486
     105    H50     24.660838   18.973809   17.519051 H          1 MOL1         0.3769
     106    C31     21.335562   14.195850   21.984464 C.3        1 MOL1         0.2972
     107    H51     20.865948   13.242398   22.256930 H          1 MOL1         0.0751
     108    O26     20.396887   15.091344   21.351881 O.3        1 MOL1        -0.3740
     109    C32     21.915774   14.887163   23.244160 C.3        1 MOL1         0.1003
     110    H52     22.661404   14.205093   23.673146 H          1 MOL1         0.0783
     111    O27     20.893513   15.145693   24.220481 O.3        1 MOL1        -0.5519
     112    H53     20.136672   14.546293   24.012431 H          1 MOL1         0.3769
     113    C33     22.626124   16.207397   22.868864 C.3        1 MOL1         0.1053
     114    H54     21.858944   16.916652   22.540135 H          1 MOL1         0.0783
     115    O28     23.283582   16.725314   24.028069 O.3        1 MOL1        -0.5519
     116    H55     22.614305   16.649640   24.745340 H          1 MOL1         0.3769
     117    C34     23.636371   16.019784   21.707106 C.3        1 MOL1         0.1018
     118    H56     24.554880   15.567548   22.104361 H          1 MOL1         0.0783
     119    C35     23.070962   15.150854   20.548323 C.3        1 MOL1         0.1043
     120    H57     22.335218   15.751005   19.997474 H          1 MOL1         0.0783
     121    O29     22.428463   13.963635   21.071915 O.3        1 MOL1        -0.3740
     122    C36     24.150498   14.700037   19.539364 C.3        1 MOL1         0.0138
     123    H58     24.570115   15.586080   19.044674 H          1 MOL1         0.0794
     124    H59     23.674321   14.087206   18.762284 H          1 MOL1         0.0794
     125    O30     25.188685   13.960380   20.188408 O.3        1 MOL1        -0.5486
     126    H60     24.750395   13.199208   20.630182 H          1 MOL1         0.3769
     127    N1      20.539253   18.405412   16.920614 N.4        1 MOL1        -0.5919
     128    H1      21.286632   18.174662   16.258868 H          1 MOL1         0.3682
     129    H2      19.871643   17.615738   16.914941 H          1 MOL1         0.3682
     130    H3      20.046827   19.227278   16.557800 H          1 MOL1         0.3682
     131    C1      21.074375   18.633814   18.316682 C.3        1 MOL1         0.0252
     132    H4      21.863509   19.388597   18.267604 H          1 MOL1         0.0971
     133    H5      21.515558   17.692513   18.654994 H          1 MOL1         0.0971
     134    C2      19.984061   19.081420   19.303549 C.3        1 MOL1        -0.1369
     135    H6      19.772311   20.148165   19.154151 H          1 MOL1         0.0997
     136    H7      19.054016   18.538703   19.087614 H          1 MOL1         0.0997
     137    C3      20.400126   18.812798   20.764926 C.3        1 MOL1        -0.1329
     138    H8      21.292378   19.399204   21.020988 H          1 MOL1         0.0997
     139    H9      20.673009   17.754986   20.865178 H          1 MOL1         0.0997
     140    C4      19.260669   19.139311   21.751648 C.3        1 MOL1        -0.1305
     141    H10     19.033192   20.212120   21.716811 H          1 MOL1         0.0997
     142    H11     18.350273   18.613851   21.438288 H          1 MOL1         0.0997
     143    C5      19.613382   18.738635   23.199423 C.3        1 MOL1        -0.2320
     144    H12     19.739209   17.651798   23.288719 H          1 MOL1         0.1008
     145    H13     20.543209   19.220017   23.530652 H          1 MOL1         0.1008
     146    H14     18.814625   19.039967   23.889434 H          1 MOL1         0.1008
@<TRIPOS>BOND
    1     1     2    1
    2     1     3    1
    3     1     4    1
    4     4     5    1
    5     4     6    1
    6     6     7    1
    7     4     8    1
    8     8     9    1
    9     8    10    1
   10    10    11    1
   11     8    12    1
   12    12    13    1
   13    12    14    1
   14    14    15    1
   15     1    16    1
   16    14    16    1
   17    14    17    1
   18    17    18    1
   19    17    19    1
   20    17    20    1
   21    20    21    1
   22    22    23    1
   23    22    24    1
   24    22    25    1
   25    25    26    1
   26    25    27    1
   27    27    28    1
   28    25    29    1
   29    29    30    1
   30    29    31    1
   31    31    32    1
   32     3    33    1
   33    29    33    1
   34    33    34    1
   35    33    35    1
   36    35    36    1
   37    22    37    1
   38    35    37    1
   39    35    38    1
   40    38    39    1
   41    38    40    1
   42    38    41    1
   43    41    42    1
   44    43    44    1
   45    43    45    1
   46    43    46    1
   47    46    47    1
   48    46    48    1
   49    48    49    1
   50    46    50    1
   51    50    51    1
   52    50    52    1
   53    52    53    1
   54    24    54    1
   55    50    54    1
   56    54    55    1
   57    54    56    1
   58    56    57    1
   59    43    58    1
   60    56    58    1
   61    56    59    1
   62    59    60    1
   63    59    61    1
   64    59    62    1
   65    62    63    1
   66    64    65    1
   67    64    66    1
   68    64    67    1
   69    67    68    1
   70    67    69    1
   71    69    70    1
   72    67    71    1
   73    71    72    1
   74    71    73    1
   75    73    74    1
   76    45    75    1
   77    71    75    1
   78    75    76    1
   79    75    77    1
   80    77    78    1
   81    64    79    1
   82    77    79    1
   83    77    80    1
   84    80    81    1
   85    80    82    1
   86    80    83    1
   87    83    84    1
   88    85    86    1
   89    85    87    1
   90    85    88    1
   91    88    89    1
   92    88    90    1
   93    90    91    1
   94    88    92    1
   95    92    93    1
   96    92    94    1
   97    94    95    1
   98    66    96    1
   99    92    96    1
  100    96    97    1
  101    96    98    1
  102    98    99    1
  103    85   100    1
  104    98   100    1
  105    98   101    1
  106   101   102    1
  107   101   103    1
  108   101   104    1
  109   104   105    1
  110   106   107    1
  111    12   108    1
  112   106   108    1
  113   106   109    1
  114   109   110    1
  115   109   111    1
  116   111   112    1
  117   109   113    1
  118   113   114    1
  119   113   115    1
  120   115   116    1
  121    87   117    1
  122   113   117    1
  123   117   118    1
  124   117   119    1
  125   119   120    1
  126   106   121    1
  127   119   121    1
  128   119   122    1
  129   122   123    1
  130   122   124    1
  131   122   125    1
  132   125   126    1
  133   127   128    1
  134   127   129    1
  135   127   130    1
  136   127   131    1
  137   131   132    1
  138   131   133    1
  139   131   134    1
  140   134   135    1
  141   134   136    1
  142   134   137    1
  143   137   138    1
  144   137   139    1
  145   137   140    1
  146   140   141    1
  147   140   142    1
  148   140   143    1
  149   143   144    1
  150   143   145    1
  151   143   146    1
@<TRIPOS>SUBSTRUCTURE
       1 MOL1            1 RESIDUE      1      MOL     
       2 MOL1          146 RESIDUE      1      MOL     
@<SCITEGIC>MOL_PROPERTY
VM2 Rank
SciTegic.value.IntegerValue
5

@<SCITEGIC>MOL_PROPERTY
Conf_Id
SciTegic.value.IntegerValue
17509

@<SCITEGIC>MOL_PROPERTY
Probability
SciTegic.value.DoubleValue
1.26

@<SCITEGIC>MOL_PROPERTY
Sum Probability
SciTegic.value.DoubleValue
9.09

@<SCITEGIC>MOL_PROPERTY
Delta G
SciTegic.value.DoubleValue
0.509

@<SCITEGIC>MOL_PROPERTY
G
SciTegic.value.DoubleValue
548.308

@<SCITEGIC>MOL_PROPERTY
E
SciTegic.value.DoubleValue
355.003

@<SCITEGIC>MOL_PROPERTY
-TS
SciTegic.value.DoubleValue
193.305

@<SCITEGIC>MOL_PROPERTY
U+W
SciTegic.value.DoubleValue
226.232

@<SCITEGIC>MOL_PROPERTY
U
SciTegic.value.DoubleValue
297.005

@<SCITEGIC>MOL_PROPERTY
W
SciTegic.value.DoubleValue
-70.772

@<SCITEGIC>MOL_PROPERTY
W(PB)
SciTegic.value.DoubleValue
-76.743

@<SCITEGIC>MOL_PROPERTY
W(SA)
SciTegic.value.DoubleValue
5.971

@<SCITEGIC>MOL_PROPERTY
Valence
SciTegic.value.DoubleValue
145.352

@<SCITEGIC>MOL_PROPERTY
Coulomb
SciTegic.value.DoubleValue
175.681

@<SCITEGIC>MOL_PROPERTY
VdW
SciTegic.value.DoubleValue
-24.028

@<SCITEGIC>MOL_PROPERTY
VdW6
SciTegic.value.DoubleValue
-173.681

@<SCITEGIC>MOL_PROPERTY
VdW12
SciTegic.value.DoubleValue
149.653

@<SCITEGIC>MOL_PROPERTY
Bond
SciTegic.value.DoubleValue
4.348

@<SCITEGIC>MOL_PROPERTY
Angle
SciTegic.value.DoubleValue
10.078

@<SCITEGIC>MOL_PROPERTY
Pdih
SciTegic.value.DoubleValue
130.926

@<SCITEGIC>MOL_PROPERTY
Idih
SciTegic.value.DoubleValue
0.000

@<SCITEGIC>MOL_PROPERTY
Tether
SciTegic.value.DoubleValue
0.000

@<TRIPOS>MOLECULE
CD_guest-s11_vm2_single.mol2 : vm2 host+ligand conformer 6
         146         151           2
SMALL
USER_CHARGES
 
@<TRIPOS>ATOM
       1    C1      16.162361   14.995222   20.631419 C.3        1 MOL1         0.2972
       2    H1      15.100868   14.886125   20.374152 H          1 MOL1         0.0751
       3    O1      16.506664   16.368885   20.910906 O.3        1 MOL1        -0.3740
       4    C2      16.547237   14.105170   21.840535 C.3        1 MOL1         0.1003
       5    H2      16.414829   13.061624   21.526169 H          1 MOL1         0.0783
       6    O2      15.712772   14.351014   22.981625 O.3        1 MOL1        -0.5519
       7    H3      15.865156   15.290691   23.255345 H          1 MOL1         0.3769
       8    C3      18.038542   14.307480   22.201290 C.3        1 MOL1         0.1053
       9    H4      18.158099   15.331668   22.582188 H          1 MOL1         0.0783
      10    O3      18.398942   13.367353   23.219522 O.3        1 MOL1        -0.5519
      11    H5      17.624086   13.340117   23.826234 H          1 MOL1         0.3769
      12    C4      18.961078   14.144028   20.958694 C.3        1 MOL1         0.1018
      13    H6      19.116368   13.076604   20.752180 H          1 MOL1         0.0783
      14    C5      18.403149   14.821021   19.676103 C.3        1 MOL1         0.1043
      15    H7      18.572259   15.901133   19.750173 H          1 MOL1         0.0783
      16    O4      16.986427   14.552632   19.534197 O.3        1 MOL1        -0.3740
      17    C6      19.110319   14.315279   18.401998 C.3        1 MOL1         0.0138
      18    H8      18.898084   13.246017   18.268708 H          1 MOL1         0.0794
      19    H9      20.196146   14.428415   18.522759 H          1 MOL1         0.0794
      20    O5      18.665144   15.061193   17.267194 O.3        1 MOL1        -0.5486
      21    H10     17.684169   14.998754   17.268528 H          1 MOL1         0.3769
      22    C7      15.027794   20.102398   21.806056 C.3        1 MOL1         0.2972
      23    H11     14.424650   20.976584   22.081462 H          1 MOL1         0.0751
      24    O6      16.302406   20.488115   21.249116 O.3        1 MOL1        -0.3740
      25    C8      15.273793   19.208720   23.047780 C.3        1 MOL1         0.1003
      26    H12     14.290374   18.889095   23.416582 H          1 MOL1         0.0783
      27    O7      15.959069   19.928157   24.086209 O.3        1 MOL1        -0.5519
      28    H13     15.832011   20.890416   23.903647 H          1 MOL1         0.3769
      29    C9      16.080984   17.947915   22.665111 C.3        1 MOL1         0.1053
      30    H14     17.091881   18.269338   22.392415 H          1 MOL1         0.0783
      31    O8      16.150579   17.079247   23.798896 O.3        1 MOL1        -0.5519
      32    H15     16.383412   17.671790   24.549089 H          1 MOL1         0.3769
      33    C10     15.467455   17.208411   21.448229 C.3        1 MOL1         0.1018
      34    H16     14.599244   16.628446   21.788429 H          1 MOL1         0.0783
      35    C11     15.050822   18.171589   20.300858 C.3        1 MOL1         0.1043
      36    H17     15.965171   18.528612   19.809870 H          1 MOL1         0.0783
      37    O9      14.325747   19.308915   20.827885 O.3        1 MOL1        -0.3740
      38    C12     14.183643   17.496084   19.211548 C.3        1 MOL1         0.0138
      39    H18     14.819292   16.807927   18.638003 H          1 MOL1         0.0794
      40    H19     13.829928   18.269147   18.516252 H          1 MOL1         0.0794
      41    O10     13.073737   16.780953   19.768877 O.3        1 MOL1        -0.5486
      42    H20     12.527296   16.449905   19.022851 H          1 MOL1         0.3769
      43    C13     18.539101   23.986275   20.849125 C.3        1 MOL1         0.2972
      44    H21     18.900797   24.991736   20.597450 H          1 MOL1         0.0751
      45    O11     19.603947   23.135356   21.311359 O.3        1 MOL1        -0.3740
      46    C14     17.450241   24.042369   21.950541 C.3        1 MOL1         0.1003
      47    H22     16.619178   24.640389   21.554451 H          1 MOL1         0.0783
      48    O12     17.943293   24.664616   23.147785 O.3        1 MOL1        -0.5519
      49    H23     18.770137   24.187741   23.413674 H          1 MOL1         0.3769
      50    C15     16.910258   22.624208   22.261888 C.3        1 MOL1         0.1053
      51    H24     17.721545   22.043651   22.722806 H          1 MOL1         0.0783
      52    O13     15.819359   22.745206   23.181588 O.3        1 MOL1        -0.5519
      53    H25     16.100777   23.443526   23.816085 H          1 MOL1         0.3769
      54    C16     16.470794   21.890715   20.961214 C.3        1 MOL1         0.1018
      55    H26     15.539753   22.332299   20.581360 H          1 MOL1         0.0783
      56    C17     17.552314   21.982014   19.852276 C.3        1 MOL1         0.1043
      57    H27     18.411503   21.368096   20.148185 H          1 MOL1         0.0783
      58    O14     17.951947   23.364618   19.686812 O.3        1 MOL1        -0.3740
      59    C18     17.043795   21.474596   18.485887 C.3        1 MOL1         0.0138
      60    H28     16.218221   22.114176   18.146164 H          1 MOL1         0.0794
      61    H29     16.650527   20.456349   18.601265 H          1 MOL1         0.0794
      62    O15     18.109757   21.481124   17.531691 O.3        1 MOL1        -0.5486
      63    H30     18.465271   22.397921   17.536261 H          1 MOL1         0.3769
      64    C19     23.595132   22.888126   22.068296 C.3        1 MOL1         0.2972
      65    H31     24.666589   22.991114   22.283491 H          1 MOL1         0.0751
      66    O16     23.255622   21.550915   21.646096 O.3        1 MOL1        -0.3740
      67    C20     22.759564   23.240511   23.323209 C.3        1 MOL1         0.1003
      68    H32     22.941749   24.297982   23.555085 H          1 MOL1         0.0783
      69    O17     23.144782   22.436493   24.449354 O.3        1 MOL1        -0.5519
      70    H33     23.727262   21.713660   24.107561 H          1 MOL1         0.3769
      71    C21     21.252626   23.065329   23.032544 C.3        1 MOL1         0.1053
      72    H34     21.067044   21.992722   22.912975 H          1 MOL1         0.0783
      73    O18     20.490141   23.553379   24.140097 O.3        1 MOL1        -0.5519
      74    H35     20.937162   23.183795   24.934462 H          1 MOL1         0.3769
      75    C22     20.815672   23.787896   21.731207 C.3        1 MOL1         0.1018
      76    H36     20.653634   24.849473   21.961444 H          1 MOL1         0.0783
      77    C23     21.827607   23.641305   20.556270 C.3        1 MOL1         0.1043
      78    H37     21.702403   22.639048   20.125723 H          1 MOL1         0.0783
      79    O19     23.191330   23.797490   21.024583 O.3        1 MOL1        -0.3740
      80    C24     21.600899   24.659521   19.416875 C.3        1 MOL1         0.0138
      81    H38     20.620901   24.473060   18.958316 H          1 MOL1         0.0794
      82    H39     22.359771   24.495016   18.640164 H          1 MOL1         0.0794
      83    O20     21.671064   26.003032   19.902510 O.3        1 MOL1        -0.5486
      84    H40     22.557466   26.101244   20.316384 H          1 MOL1         0.3769
      85    C25     24.883083   17.817115   20.885542 C.3        1 MOL1         0.2972
      86    H41     25.521222   16.972809   20.594651 H          1 MOL1         0.0751
      87    O21     23.520923   17.392927   21.103731 O.3        1 MOL1        -0.3740
      88    C26     25.440610   18.526106   22.152678 C.3        1 MOL1         0.1003
      89    H42     26.443561   18.892159   21.897236 H          1 MOL1         0.0783
      90    O22     25.547130   17.636325   23.273888 O.3        1 MOL1        -0.5519
      91    H43     24.624733   17.364519   23.511724 H          1 MOL1         0.3769
      92    C27     24.571879   19.749883   22.527043 C.3        1 MOL1         0.1053
      93    H44     23.589932   19.380202   22.853275 H          1 MOL1         0.0783
      94    O23     25.196590   20.468505   23.595036 O.3        1 MOL1        -0.5519
      95    H45     25.517642   19.776836   24.216784 H          1 MOL1         0.3769
      96    C28     24.355808   20.686683   21.311281 C.3        1 MOL1         0.1018
      97    H46     25.275295   21.250964   21.105357 H          1 MOL1         0.0783
      98    C29     23.947743   19.911309   20.031958 C.3        1 MOL1         0.1043
      99    H47     22.921019   19.549685   20.155156 H          1 MOL1         0.0783
     100    O24     24.856273   18.800195   19.829201 O.3        1 MOL1        -0.3740
     101    C30     23.993128   20.790639   18.765997 C.3        1 MOL1         0.0138
     102    H48     25.036707   21.042471   18.534304 H          1 MOL1         0.0794
     103    H49     23.458304   21.729961   18.954311 H          1 MOL1         0.0794
     104    O25     23.384755   20.097161   17.674146 O.3        1 MOL1        -0.5486
     105    H50     23.858441   19.239789   17.595784 H          1 MOL1         0.3769
     106    C31     21.204668   14.053797   21.946050 C.3        1 MOL1         0.2972
     107    H51     20.825183   13.068904   22.247168 H          1 MOL1         0.0751
     108    O26     20.206593   14.813875   21.236336 O.3        1 MOL1        -0.3740
     109    C32     21.672941   14.857550   23.188764 C.3        1 MOL1         0.1003
     110    H52     22.470746   14.275276   23.668014 H          1 MOL1         0.0783
     111    O27     20.607716   15.061417   24.130979 O.3        1 MOL1        -0.5519
     112    H53     19.904969   14.398270   23.927282 H          1 MOL1         0.3769
     113    C33     22.257995   16.224106   22.769695 C.3        1 MOL1         0.1053
     114    H54     21.434405   16.825858   22.367930 H          1 MOL1         0.0783
     115    O28     22.814711   16.867962   23.920108 O.3        1 MOL1        -0.5519
     116    H55     22.131277   16.755198   24.618607 H          1 MOL1         0.3769
     117    C34     23.330937   16.077837   21.663386 C.3        1 MOL1         0.1018
     118    H56     24.251050   15.684890   22.115155 H          1 MOL1         0.0783
     119    C35     22.871279   15.136940   20.514382 C.3        1 MOL1         0.1043
     120    H57     22.090203   15.650548   19.937978 H          1 MOL1         0.0783
     121    O29     22.341790   13.905485   21.068546 O.3        1 MOL1        -0.3740
     122    C36     24.003431   14.763013   19.531783 C.3        1 MOL1         0.0138
     123    H58     24.333664   15.668306   19.005474 H          1 MOL1         0.0794
     124    H59     23.601815   14.075328   18.775497 H          1 MOL1         0.0794
     125    O30     25.106105   14.160294   20.215212 O.3        1 MOL1        -0.5486
     126    H60     24.746119   13.371507   20.678602 H          1 MOL1         0.3769
     127    N1      19.294038   18.861644   16.881615 N.4        1 MOL1        -0.5919
     128    H1      18.750640   18.354943   16.176127 H          1 MOL1         0.3682
     129    H2      18.944379   19.834712   16.895853 H          1 MOL1         0.3682
     130    H3      20.267158   18.889019   16.562504 H          1 MOL1         0.3682
     131    C1      19.162366   18.233702   18.251239 C.3        1 MOL1         0.0252
     132    H4      19.424438   17.175205   18.175326 H          1 MOL1         0.0971
     133    H5      18.112348   18.310558   18.545692 H          1 MOL1         0.0971
     134    C2      20.049082   18.917261   19.304589 C.3        1 MOL1        -0.1369
     135    H6      21.084805   18.572029   19.189557 H          1 MOL1         0.0997
     136    H7      20.053099   20.001137   19.127557 H          1 MOL1         0.0997
     137    C3      19.542734   18.639289   20.735405 C.3        1 MOL1        -0.1329
     138    H8      19.593280   17.564762   20.955412 H          1 MOL1         0.0997
     139    H9      18.486501   18.929023   20.798413 H          1 MOL1         0.0997
     140    C4      20.349196   19.426182   21.788556 C.3        1 MOL1        -0.1305
     141    H10     21.393048   19.088174   21.787923 H          1 MOL1         0.0997
     142    H11     20.361895   20.488044   21.513930 H          1 MOL1         0.0997
     143    C5      19.761814   19.268725   23.206747 C.3        1 MOL1        -0.2320
     144    H12     18.754540   19.700948   23.267049 H          1 MOL1         0.1008
     145    H13     19.699334   18.211416   23.496954 H          1 MOL1         0.1008
     146    H14     20.390503   19.783284   23.944925 H          1 MOL1         0.1008
@<TRIPOS>BOND
    1     1     2    1
    2     1     3    1
    3     1     4    1
    4     4     5    1
    5     4     6    1
    6     6     7    1
    7     4     8    1
    8     8     9    1
    9     8    10    1
   10    10    11    1
   11     8    12    1
   12    12    13    1
   13    12    14    1
   14    14    15    1
   15     1    16    1
   16    14    16    1
   17    14    17    1
   18    17    18    1
   19    17    19    1
   20    17    20    1
   21    20    21    1
   22    22    23    1
   23    22    24    1
   24    22    25    1
   25    25    26    1
   26    25    27    1
   27    27    28    1
   28    25    29    1
   29    29    30    1
   30    29    31    1
   31    31    32    1
   32     3    33    1
   33    29    33    1
   34    33    34    1
   35    33    35    1
   36    35    36    1
   37    22    37    1
   38    35    37    1
   39    35    38    1
   40    38    39    1
   41    38    40    1
   42    38    41    1
   43    41    42    1
   44    43    44    1
   45    43    45    1
   46    43    46    1
   47    46    47    1
   48    46    48    1
   49    48    49    1
   50    46    50    1
   51    50    51    1
   52    50    52    1
   53    52    53    1
   54    24    54    1
   55    50    54    1
   56    54    55    1
   57    54    56    1
   58    56    57    1
   59    43    58    1
   60    56    58    1
   61    56    59    1
   62    59    60    1
   63    59    61    1
   64    59    62    1
   65    62    63    1
   66    64    65    1
   67    64    66    1
   68    64    67    1
   69    67    68    1
   70    67    69    1
   71    69    70    1
   72    67    71    1
   73    71    72    1
   74    71    73    1
   75    73    74    1
   76    45    75    1
   77    71    75    1
   78    75    76    1
   79    75    77    1
   80    77    78    1
   81    64    79    1
   82    77    79    1
   83    77    80    1
   84    80    81    1
   85    80    82    1
   86    80    83    1
   87    83    84    1
   88    85    86    1
   89    85    87    1
   90    85    88    1
   91    88    89    1
   92    88    90    1
   93    90    91    1
   94    88    92    1
   95    92    93    1
   96    92    94    1
   97    94    95    1
   98    66    96    1
   99    92    96    1
  100    96    97    1
  101    96    98    1
  102    98    99    1
  103    85   100    1
  104    98   100    1
  105    98   101    1
  106   101   102    1
  107   101   103    1
  108   101   104    1
  109   104   105    1
  110   106   107    1
  111    12   108    1
  112   106   108    1
  113   106   109    1
  114   109   110    1
  115   109   111    1
  116   111   112    1
  117   109   113    1
  118   113   114    1
  119   113   115    1
  120   115   116    1
  121    87   117    1
  122   113   117    1
  123   117   118    1
  124   117   119    1
  125   119   120    1
  126   106   121    1
  127   119   121    1
  128   119   122    1
  129   122   123    1
  130   122   124    1
  131   122   125    1
  132   125   126    1
  133   127   128    1
  134   127   129    1
  135   127   130    1
  136   127   131    1
  137   131   132    1
  138   131   133    1
  139   131   134    1
  140   134   135    1
  141   134   136    1
  142   134   137    1
  143   137   138    1
  144   137   139    1
  145   137   140    1
  146   140   141    1
  147   140   142    1
  148   140   143    1
  149   143   144    1
  150   143   145    1
  151   143   146    1
@<TRIPOS>SUBSTRUCTURE
       1 MOL1            1 RESIDUE      1      MOL     
       2 MOL1          146 RESIDUE      1      MOL     
@<SCITEGIC>MOL_PROPERTY
VM2 Rank
SciTegic.value.IntegerValue
6

@<SCITEGIC>MOL_PROPERTY
Conf_Id
SciTegic.value.IntegerValue
14504

@<SCITEGIC>MOL_PROPERTY
Probability
SciTegic.value.DoubleValue
1.22

@<SCITEGIC>MOL_PROPERTY
Sum Probability
SciTegic.value.DoubleValue
10.31

@<SCITEGIC>MOL_PROPERTY
Delta G
SciTegic.value.DoubleValue
0.524

@<SCITEGIC>MOL_PROPERTY
G
SciTegic.value.DoubleValue
548.323

@<SCITEGIC>MOL_PROPERTY
E
SciTegic.value.DoubleValue
355.017

@<SCITEGIC>MOL_PROPERTY
-TS
SciTegic.value.DoubleValue
193.306

@<SCITEGIC>MOL_PROPERTY
U+W
SciTegic.value.DoubleValue
226.246

@<SCITEGIC>MOL_PROPERTY
U
SciTegic.value.DoubleValue
297.112

@<SCITEGIC>MOL_PROPERTY
W
SciTegic.value.DoubleValue
-70.866

@<SCITEGIC>MOL_PROPERTY
W(PB)
SciTegic.value.DoubleValue
-76.815

@<SCITEGIC>MOL_PROPERTY
W(SA)
SciTegic.value.DoubleValue
5.948

@<SCITEGIC>MOL_PROPERTY
Valence
SciTegic.value.DoubleValue
145.314

@<SCITEGIC>MOL_PROPERTY
Coulomb
SciTegic.value.DoubleValue
175.828

@<SCITEGIC>MOL_PROPERTY
VdW
SciTegic.value.DoubleValue
-24.029

@<SCITEGIC>MOL_PROPERTY
VdW6
SciTegic.value.DoubleValue
-173.718

@<SCITEGIC>MOL_PROPERTY
VdW12
SciTegic.value.DoubleValue
149.690

@<SCITEGIC>MOL_PROPERTY
Bond
SciTegic.value.DoubleValue
4.348

@<SCITEGIC>MOL_PROPERTY
Angle
SciTegic.value.DoubleValue
10.078

@<SCITEGIC>MOL_PROPERTY
Pdih
SciTegic.value.DoubleValue
130.888

@<SCITEGIC>MOL_PROPERTY
Idih
SciTegic.value.DoubleValue
0.000

@<SCITEGIC>MOL_PROPERTY
Tether
SciTegic.value.DoubleValue
0.000

@<TRIPOS>MOLECULE
CD_guest-s11_vm2_single.mol2 : vm2 host+ligand conformer 7
         146         151           2
SMALL
USER_CHARGES
 
@<TRIPOS>ATOM
       1    C1      16.187367   15.010388   20.565607 C.3        1 MOL1         0.2972
       2    H1      15.131133   14.895067   20.289887 H          1 MOL1         0.0751
       3    O1      16.516387   16.387686   20.849552 O.3        1 MOL1        -0.3740
       4    C2      16.557277   14.116293   21.777468 C.3        1 MOL1         0.1003
       5    H2      16.434510   13.074018   21.455028 H          1 MOL1         0.0783
       6    O2      15.703505   14.349948   22.906637 O.3        1 MOL1        -0.5519
       7    H3      15.874221   15.277362   23.209334 H          1 MOL1         0.3769
       8    C3      18.041836   14.321476   22.163889 C.3        1 MOL1         0.1053
       9    H4      18.153586   15.345699   22.546621 H          1 MOL1         0.0783
      10    O3      18.385901   13.381505   23.188001 O.3        1 MOL1        -0.5519
      11    H5      17.598956   13.349092   23.778651 H          1 MOL1         0.3769
      12    C4      18.984195   14.160592   20.936027 C.3        1 MOL1         0.1018
      13    H6      19.136936   13.093902   20.723978 H          1 MOL1         0.0783
      14    C5      18.446555   14.850629   19.651763 C.3        1 MOL1         0.1043
      15    H7      18.606158   15.930402   19.741881 H          1 MOL1         0.0783
      16    O4      17.033743   14.576801   19.480743 O.3        1 MOL1        -0.3740
      17    C6      19.183438   14.371408   18.384810 C.3        1 MOL1         0.0138
      18    H8      18.938797   13.317214   18.197683 H          1 MOL1         0.0794
      19    H9      20.267224   14.439573   18.549614 H          1 MOL1         0.0794
      20    O5      18.810565   15.183099   17.269526 O.3        1 MOL1        -0.5486
      21    H10     17.828643   15.159285   17.228980 H          1 MOL1         0.3769
      22    C7      15.030451   20.092333   21.872795 C.3        1 MOL1         0.2972
      23    H11     14.426412   20.951811   22.190166 H          1 MOL1         0.0751
      24    O6      16.279010   20.509312   21.280909 O.3        1 MOL1        -0.3740
      25    C8      15.329312   19.173850   23.084031 C.3        1 MOL1         0.1003
      26    H12     14.362740   18.834952   23.479123 H          1 MOL1         0.0783
      27    O7      16.040796   19.877313   24.115582 O.3        1 MOL1        -0.5519
      28    H13     15.913655   20.842745   23.949953 H          1 MOL1         0.3769
      29    C9      16.134960   17.930261   22.645196 C.3        1 MOL1         0.1053
      30    H14     17.131341   18.267985   22.340359 H          1 MOL1         0.0783
      31    O8      16.252941   17.040538   23.758221 O.3        1 MOL1        -0.5519
      32    H15     16.507876   17.620637   24.511003 H          1 MOL1         0.3769
      33    C10     15.488006   17.209581   21.434327 C.3        1 MOL1         0.1018
      34    H16     14.633429   16.616398   21.785935 H          1 MOL1         0.0783
      35    C11     15.031642   18.196962   20.323066 C.3        1 MOL1         0.1043
      36    H17     15.926263   18.571766   19.808551 H          1 MOL1         0.0783
      37    O9      14.306059   19.309951   20.900513 O.3        1 MOL1        -0.3740
      38    C12     14.124268   17.540935   19.258699 C.3        1 MOL1         0.0138
      39    H18     14.696069   16.767406   18.729038 H          1 MOL1         0.0794
      40    H19     13.840469   18.301294   18.518786 H          1 MOL1         0.0794
      41    O10     12.956981   16.968596   19.855419 O.3        1 MOL1        -0.5486
      42    H20     12.504727   17.699428   20.332924 H          1 MOL1         0.3769
      43    C13     18.483636   24.009150   20.841416 C.3        1 MOL1         0.2972
      44    H21     18.848034   25.015987   20.599351 H          1 MOL1         0.0751
      45    O11     19.562652   23.125001   21.204865 O.3        1 MOL1        -0.3740
      46    C14     17.448093   24.048265   21.995023 C.3        1 MOL1         0.1003
      47    H22     16.596972   24.645483   21.642624 H          1 MOL1         0.0783
      48    O12     17.984187   24.663740   23.175732 O.3        1 MOL1        -0.5519
      49    H23     18.794573   24.155439   23.433572 H          1 MOL1         0.3769
      50    C15     16.928448   22.623428   22.308492 C.3        1 MOL1         0.1053
      51    H24     17.765787   22.035007   22.708132 H          1 MOL1         0.0783
      52    O13     15.890472   22.718061   23.290396 O.3        1 MOL1        -0.5519
      53    H25     16.202608   23.405282   23.922544 H          1 MOL1         0.3769
      54    C16     16.411278   21.921285   21.020002 C.3        1 MOL1         0.1018
      55    H26     15.450636   22.361555   20.720674 H          1 MOL1         0.0783
      56    C17     17.404906   22.055629   19.835698 C.3        1 MOL1         0.1043
      57    H27     18.274420   21.415659   20.030922 H          1 MOL1         0.0783
      58    O14     17.815799   23.438588   19.697610 O.3        1 MOL1        -0.3740
      59    C18     16.771462   21.625512   18.495941 C.3        1 MOL1         0.0138
      60    H28     15.910304   22.271376   18.278351 H          1 MOL1         0.0794
      61    H29     16.402327   20.595266   18.583147 H          1 MOL1         0.0794
      62    O15     17.738479   21.711998   17.447115 O.3        1 MOL1        -0.5486
      63    H30     18.098351   22.625662   17.487747 H          1 MOL1         0.3769
      64    C19     23.563409   22.849080   22.018855 C.3        1 MOL1         0.2972
      65    H31     24.628850   22.966026   22.255632 H          1 MOL1         0.0751
      66    O16     23.261530   21.521962   21.536785 O.3        1 MOL1        -0.3740
      67    C20     22.697616   23.147702   23.268884 C.3        1 MOL1         0.1003
      68    H32     22.860270   24.200070   23.535988 H          1 MOL1         0.0783
      69    O17     23.062176   22.319161   24.383691 O.3        1 MOL1        -0.5519
      70    H33     23.739632   21.674356   24.062588 H          1 MOL1         0.3769
      71    C21     21.200465   22.962745   22.942934 C.3        1 MOL1         0.1053
      72    H34     21.037548   21.896487   22.760865 H          1 MOL1         0.0783
      73    O18     20.418916   23.376456   24.066513 O.3        1 MOL1        -0.5519
      74    H35     20.876919   22.984447   24.844190 H          1 MOL1         0.3769
      75    C22     20.776635   23.743999   21.672316 C.3        1 MOL1         0.1018
      76    H36     20.624129   24.796904   21.944921 H          1 MOL1         0.0783
      77    C23     21.805486   23.635957   20.508079 C.3        1 MOL1         0.1043
      78    H37     21.695595   22.645370   20.047554 H          1 MOL1         0.0783
      79    O19     23.161835   23.788726   21.000119 O.3        1 MOL1        -0.3740
      80    C24     21.583549   24.685533   19.396735 C.3        1 MOL1         0.0138
      81    H38     20.605978   24.510036   18.928413 H          1 MOL1         0.0794
      82    H39     22.347240   24.544910   18.620085 H          1 MOL1         0.0794
      83    O20     21.647520   26.014775   19.921122 O.3        1 MOL1        -0.5486
      84    H40     22.530456   26.102221   20.344693 H          1 MOL1         0.3769
      85    C25     24.936802   17.780910   20.951511 C.3        1 MOL1         0.2972
      86    H41     25.578401   16.924653   20.706765 H          1 MOL1         0.0751
      87    O21     23.565895   17.371957   21.143558 O.3        1 MOL1        -0.3740
      88    C26     25.459261   18.526886   22.210157 C.3        1 MOL1         0.1003
      89    H42     26.469818   18.883011   21.971018 H          1 MOL1         0.0783
      90    O22     25.533493   17.670476   23.359654 O.3        1 MOL1        -0.5519
      91    H43     24.605360   17.400309   23.576254 H          1 MOL1         0.3769
      92    C27     24.584754   19.763953   22.524024 C.3        1 MOL1         0.1053
      93    H44     23.597635   19.407004   22.849249 H          1 MOL1         0.0783
      94    O23     25.201930   20.512762   23.575150 O.3        1 MOL1        -0.5519
      95    H45     25.518894   19.838262   24.218026 H          1 MOL1         0.3769
      96    C28     24.386907   20.662197   21.273994 C.3        1 MOL1         0.1018
      97    H46     25.302788   21.236408   21.079932 H          1 MOL1         0.0783
      98    C29     24.035045   19.846569   20.002384 C.3        1 MOL1         0.1043
      99    H47     23.004268   19.485659   20.091330 H          1 MOL1         0.0783
     100    O24     24.952723   18.732780   19.868023 O.3        1 MOL1        -0.3740
     101    C30     24.135253   20.690902   18.715950 C.3        1 MOL1         0.0138
     102    H48     25.169260   21.038378   18.588472 H          1 MOL1         0.0794
     103    H49     23.494542   21.577274   18.812832 H          1 MOL1         0.0794
     104    O25     23.726554   19.907820   17.591652 O.3        1 MOL1        -0.5486
     105    H50     24.305822   19.112209   17.597648 H          1 MOL1         0.3769
     106    C31     21.204352   14.064315   21.980321 C.3        1 MOL1         0.2972
     107    H51     20.809765   13.086779   22.285756 H          1 MOL1         0.0751
     108    O26     20.230232   14.821353   21.234815 O.3        1 MOL1        -0.3740
     109    C32     21.647485   14.883251   23.222571 C.3        1 MOL1         0.1003
     110    H52     22.426716   14.300927   23.731400 H          1 MOL1         0.0783
     111    O27     20.559420   15.110325   24.132783 O.3        1 MOL1        -0.5519
     112    H53     19.864929   14.437606   23.932661 H          1 MOL1         0.3769
     113    C33     22.256664   16.238600   22.799913 C.3        1 MOL1         0.1053
     114    H54     21.449643   16.844573   22.372658 H          1 MOL1         0.0783
     115    O28     22.793130   16.891754   23.954540 O.3        1 MOL1        -0.5519
     116    H55     22.091420   16.797816   24.637544 H          1 MOL1         0.3769
     117    C34     23.353753   16.067956   21.720915 C.3        1 MOL1         0.1018
     118    H56     24.260666   15.677399   22.200803 H          1 MOL1         0.0783
     119    C35     22.915714   15.111966   20.575828 C.3        1 MOL1         0.1043
     120    H57     22.153517   15.621724   19.971662 H          1 MOL1         0.0783
     121    O29     22.362354   13.893699   21.134984 O.3        1 MOL1        -0.3740
     122    C36     24.069343   14.714034   19.628273 C.3        1 MOL1         0.0138
     123    H58     24.420356   15.608436   19.096780 H          1 MOL1         0.0794
     124    H59     23.681485   14.017856   18.872579 H          1 MOL1         0.0794
     125    O30     25.149190   14.113324   20.348898 O.3        1 MOL1        -0.5486
     126    H60     24.771054   13.334475   20.814644 H          1 MOL1         0.3769
     127    N1      20.829597   19.816937   17.236422 N.4        1 MOL1        -0.5919
     128    H1      20.514040   19.050671   16.635015 H          1 MOL1         0.3682
     129    H2      20.631710   20.690250   16.738022 H          1 MOL1         0.3682
     130    H3      21.857756   19.748373   17.317979 H          1 MOL1         0.3682
     131    C1      20.154847   19.790982   18.590229 C.3        1 MOL1         0.0252
     132    H4      19.100858   20.037015   18.439552 H          1 MOL1         0.0971
     133    H5      20.606631   20.575349   19.202595 H          1 MOL1         0.0971
     134    C2      20.253740   18.432748   19.308246 C.3        1 MOL1        -0.1369
     135    H6      19.765535   17.668370   18.689393 H          1 MOL1         0.0997
     136    H7      21.304075   18.129438   19.406909 H          1 MOL1         0.0997
     137    C3      19.583536   18.468109   20.701533 C.3        1 MOL1        -0.1329
     138    H8      19.562116   17.453344   21.118697 H          1 MOL1         0.0997
     139    H9      18.536312   18.782167   20.594973 H          1 MOL1         0.0997
     140    C4      20.313653   19.403023   21.691833 C.3        1 MOL1        -0.1305
     141    H10     21.370765   19.114944   21.763950 H          1 MOL1         0.0997
     142    H11     20.291442   20.432871   21.315636 H          1 MOL1         0.0997
     143    C5      19.683994   19.359769   23.100197 C.3        1 MOL1        -0.2320
     144    H12     18.669588   19.776908   23.091382 H          1 MOL1         0.1008
     145    H13     19.630367   18.331237   23.481478 H          1 MOL1         0.1008
     146    H14     20.278518   19.947239   23.811403 H          1 MOL1         0.1008
@<TRIPOS>BOND
    1     1     2    1
    2     1     3    1
    3     1     4    1
    4     4     5    1
    5     4     6    1
    6     6     7    1
    7     4     8    1
    8     8     9    1
    9     8    10    1
   10    10    11    1
   11     8    12    1
   12    12    13    1
   13    12    14    1
   14    14    15    1
   15     1    16    1
   16    14    16    1
   17    14    17    1
   18    17    18    1
   19    17    19    1
   20    17    20    1
   21    20    21    1
   22    22    23    1
   23    22    24    1
   24    22    25    1
   25    25    26    1
   26    25    27    1
   27    27    28    1
   28    25    29    1
   29    29    30    1
   30    29    31    1
   31    31    32    1
   32     3    33    1
   33    29    33    1
   34    33    34    1
   35    33    35    1
   36    35    36    1
   37    22    37    1
   38    35    37    1
   39    35    38    1
   40    38    39    1
   41    38    40    1
   42    38    41    1
   43    41    42    1
   44    43    44    1
   45    43    45    1
   46    43    46    1
   47    46    47    1
   48    46    48    1
   49    48    49    1
   50    46    50    1
   51    50    51    1
   52    50    52    1
   53    52    53    1
   54    24    54    1
   55    50    54    1
   56    54    55    1
   57    54    56    1
   58    56    57    1
   59    43    58    1
   60    56    58    1
   61    56    59    1
   62    59    60    1
   63    59    61    1
   64    59    62    1
   65    62    63    1
   66    64    65    1
   67    64    66    1
   68    64    67    1
   69    67    68    1
   70    67    69    1
   71    69    70    1
   72    67    71    1
   73    71    72    1
   74    71    73    1
   75    73    74    1
   76    45    75    1
   77    71    75    1
   78    75    76    1
   79    75    77    1
   80    77    78    1
   81    64    79    1
   82    77    79    1
   83    77    80    1
   84    80    81    1
   85    80    82    1
   86    80    83    1
   87    83    84    1
   88    85    86    1
   89    85    87    1
   90    85    88    1
   91    88    89    1
   92    88    90    1
   93    90    91    1
   94    88    92    1
   95    92    93    1
   96    92    94    1
   97    94    95    1
   98    66    96    1
   99    92    96    1
  100    96    97    1
  101    96    98    1
  102    98    99    1
  103    85   100    1
  104    98   100    1
  105    98   101    1
  106   101   102    1
  107   101   103    1
  108   101   104    1
  109   104   105    1
  110   106   107    1
  111    12   108    1
  112   106   108    1
  113   106   109    1
  114   109   110    1
  115   109   111    1
  116   111   112    1
  117   109   113    1
  118   113   114    1
  119   113   115    1
  120   115   116    1
  121    87   117    1
  122   113   117    1
  123   117   118    1
  124   117   119    1
  125   119   120    1
  126   106   121    1
  127   119   121    1
  128   119   122    1
  129   122   123    1
  130   122   124    1
  131   122   125    1
  132   125   126    1
  133   127   128    1
  134   127   129    1
  135   127   130    1
  136   127   131    1
  137   131   132    1
  138   131   133    1
  139   131   134    1
  140   134   135    1
  141   134   136    1
  142   134   137    1
  143   137   138    1
  144   137   139    1
  145   137   140    1
  146   140   141    1
  147   140   142    1
  148   140   143    1
  149   143   144    1
  150   143   145    1
  151   143   146    1
@<TRIPOS>SUBSTRUCTURE
       1 MOL1            1 RESIDUE      1      MOL     
       2 MOL1          146 RESIDUE      1      MOL     
@<SCITEGIC>MOL_PROPERTY
VM2 Rank
SciTegic.value.IntegerValue
7

@<SCITEGIC>MOL_PROPERTY
Conf_Id
SciTegic.value.IntegerValue
7563

@<SCITEGIC>MOL_PROPERTY
Probability
SciTegic.value.DoubleValue
1.21

@<SCITEGIC>MOL_PROPERTY
Sum Probability
SciTegic.value.DoubleValue
11.53

@<SCITEGIC>MOL_PROPERTY
Delta G
SciTegic.value.DoubleValue
0.529

@<SCITEGIC>MOL_PROPERTY
G
SciTegic.value.DoubleValue
548.328

@<SCITEGIC>MOL_PROPERTY
E
SciTegic.value.DoubleValue
354.024

@<SCITEGIC>MOL_PROPERTY
-TS
SciTegic.value.DoubleValue
194.304

@<SCITEGIC>MOL_PROPERTY
U+W
SciTegic.value.DoubleValue
225.253

@<SCITEGIC>MOL_PROPERTY
U
SciTegic.value.DoubleValue
295.072

@<SCITEGIC>MOL_PROPERTY
W
SciTegic.value.DoubleValue
-69.808

@<SCITEGIC>MOL_PROPERTY
W(PB)
SciTegic.value.DoubleValue
-75.736

@<SCITEGIC>MOL_PROPERTY
W(SA)
SciTegic.value.DoubleValue
5.928

@<SCITEGIC>MOL_PROPERTY
Valence
SciTegic.value.DoubleValue
145.348

@<SCITEGIC>MOL_PROPERTY
Coulomb
SciTegic.value.DoubleValue
173.214

@<SCITEGIC>MOL_PROPERTY
VdW
SciTegic.value.DoubleValue
-23.489

@<SCITEGIC>MOL_PROPERTY
VdW6
SciTegic.value.DoubleValue
-175.328

@<SCITEGIC>MOL_PROPERTY
VdW12
SciTegic.value.DoubleValue
151.839

@<SCITEGIC>MOL_PROPERTY
Bond
SciTegic.value.DoubleValue
4.420

@<SCITEGIC>MOL_PROPERTY
Angle
SciTegic.value.DoubleValue
10.148

@<SCITEGIC>MOL_PROPERTY
Pdih
SciTegic.value.DoubleValue
130.779

@<SCITEGIC>MOL_PROPERTY
Idih
SciTegic.value.DoubleValue
0.000

@<SCITEGIC>MOL_PROPERTY
Tether
SciTegic.value.DoubleValue
0.000

@<TRIPOS>MOLECULE
CD_guest-s11_vm2_single.mol2 : vm2 host+ligand conformer 8
         146         151           2
SMALL
USER_CHARGES
 
@<TRIPOS>ATOM
       1    C1      16.200050   15.185707   20.695778 C.3        1 MOL1         0.2972
       2    H1      15.158658   14.987137   20.411082 H          1 MOL1         0.0751
       3    O1      16.396034   16.559380   21.082325 O.3        1 MOL1        -0.3740
       4    C2      16.650390   14.271796   21.864203 C.3        1 MOL1         0.1003
       5    H2      16.586530   13.235925   21.506230 H          1 MOL1         0.0783
       6    O2      15.801466   14.417145   23.013049 O.3        1 MOL1        -0.5519
       7    H3      15.816562   15.372735   23.274299 H          1 MOL1         0.3769
       8    C3      18.126681   14.554624   22.239251 C.3        1 MOL1         0.1053
       9    H4      18.186167   15.572093   22.650690 H          1 MOL1         0.0783
      10    O3      18.533475   13.606545   23.232405 O.3        1 MOL1        -0.5519
      11    H5      17.754076   13.513430   23.826894 H          1 MOL1         0.3769
      12    C4      19.048725   14.484935   20.986594 C.3        1 MOL1         0.1018
      13    H6      19.182623   13.438194   20.682472 H          1 MOL1         0.0783
      14    C5      18.467746   15.279939   19.786946 C.3        1 MOL1         0.1043
      15    H7      18.546780   16.351909   20.002903 H          1 MOL1         0.0783
      16    O4      17.080187   14.914614   19.584205 O.3        1 MOL1        -0.3740
      17    C6      19.230628   14.998825   18.475871 C.3        1 MOL1         0.0138
      18    H8      19.047252   13.962223   18.162945 H          1 MOL1         0.0794
      19    H9      20.308734   15.108523   18.652257 H          1 MOL1         0.0794
      20    O5      18.812244   15.914993   17.462530 O.3        1 MOL1        -0.5486
      21    H10     17.834068   15.840051   17.411017 H          1 MOL1         0.3769
      22    C7      14.667735   20.169094   21.805322 C.3        1 MOL1         0.2972
      23    H11     14.057194   21.057820   22.011217 H          1 MOL1         0.0751
      24    O6      15.993493   20.518904   21.354238 O.3        1 MOL1        -0.3740
      25    C8      14.783022   19.288491   23.074054 C.3        1 MOL1         0.1003
      26    H12     13.773738   18.932881   23.319313 H          1 MOL1         0.0783
      27    O7      15.303499   20.031116   24.187731 O.3        1 MOL1        -0.5519
      28    H13     15.565895   20.922187   23.848189 H          1 MOL1         0.3769
      29    C9      15.670894   18.055880   22.794845 C.3        1 MOL1         0.1053
      30    H14     16.696299   18.416590   22.653676 H          1 MOL1         0.0783
      31    O8      15.632225   17.178901   23.924012 O.3        1 MOL1        -0.5519
      32    H15     15.749190   17.769863   24.701930 H          1 MOL1         0.3769
      33    C10     15.236549   17.294600   21.513759 C.3        1 MOL1         0.1018
      34    H16     14.398123   16.631882   21.766681 H          1 MOL1         0.0783
      35    C11     14.846500   18.227132   20.328512 C.3        1 MOL1         0.1043
      36    H17     15.773486   18.598459   19.872260 H          1 MOL1         0.0783
      37    O9      14.054115   19.352113   20.787395 O.3        1 MOL1        -0.3740
      38    C12     14.047958   17.506793   19.219719 C.3        1 MOL1         0.0138
      39    H18     14.678602   16.726931   18.772800 H          1 MOL1         0.0794
      40    H19     13.812962   18.229828   18.427131 H          1 MOL1         0.0794
      41    O10     12.845753   16.931695   19.739138 O.3        1 MOL1        -0.5486
      42    H20     12.339317   17.670356   20.144881 H          1 MOL1         0.3769
      43    C13     18.456531   23.803053   20.710534 C.3        1 MOL1         0.2972
      44    H21     18.872309   24.779602   20.431056 H          1 MOL1         0.0751
      45    O11     19.503906   22.851596   20.995587 O.3        1 MOL1        -0.3740
      46    C14     17.493104   23.936230   21.924387 C.3        1 MOL1         0.1003
      47    H22     16.688848   24.617159   21.616661 H          1 MOL1         0.0783
      48    O12     18.142749   24.485997   23.080216 O.3        1 MOL1        -0.5519
      49    H23     18.829579   23.829469   23.360435 H          1 MOL1         0.3769
      50    C15     16.848115   22.574604   22.276450 C.3        1 MOL1         0.1053
      51    H24     17.639095   21.913336   22.657342 H          1 MOL1         0.0783
      52    O13     15.853113   22.775043   23.285117 O.3        1 MOL1        -0.5519
      53    H25     16.253243   23.416387   23.915317 H          1 MOL1         0.3769
      54    C16     16.218254   21.903078   21.028479 C.3        1 MOL1         0.1018
      55    H26     15.286080   22.415351   20.754906 H          1 MOL1         0.0783
      56    C17     17.176257   21.923680   19.810432 C.3        1 MOL1         0.1043
      57    H27     17.997690   21.226005   20.007298 H          1 MOL1         0.0783
      58    O14     17.684203   23.267237   19.616283 O.3        1 MOL1        -0.3740
      59    C18     16.482439   21.495001   18.501643 C.3        1 MOL1         0.0138
      60    H28     15.715533   22.235208   18.237019 H          1 MOL1         0.0794
      61    H29     15.978286   20.532395   18.654177 H          1 MOL1         0.0794
      62    O15     17.451472   21.377096   17.457567 O.3        1 MOL1        -0.5486
      63    H30     17.920901   22.239450   17.424943 H          1 MOL1         0.3769
      64    C19     23.513172   22.621600   22.076976 C.3        1 MOL1         0.2972
      65    H31     24.530982   22.816783   22.438600 H          1 MOL1         0.0751
      66    O16     23.431979   21.370611   21.366615 O.3        1 MOL1        -0.3740
      67    C20     22.505895   22.612724   23.259263 C.3        1 MOL1         0.1003
      68    H32     22.547748   23.606838   23.723235 H          1 MOL1         0.0783
      69    O17     22.833144   21.623147   24.247373 O.3        1 MOL1        -0.5519
      70    H33     23.765988   21.342293   24.086210 H          1 MOL1         0.3769
      71    C21     21.064918   22.381309   22.752089 C.3        1 MOL1         0.1053
      72    H34     21.008748   21.360056   22.352541 H          1 MOL1         0.0783
      73    O18     20.156081   22.527452   23.848067 O.3        1 MOL1        -0.5519
      74    H35     20.564304   22.005271   24.575367 H          1 MOL1         0.3769
      75    C22     20.697180   23.368720   21.618138 C.3        1 MOL1         0.1018
      76    H36     20.534355   24.361553   22.057277 H          1 MOL1         0.0783
      77    C23     21.805780   23.458643   20.531538 C.3        1 MOL1         0.1043
      78    H37     21.812454   22.518592   19.964124 H          1 MOL1         0.0783
      79    O19     23.096843   23.659751   21.163062 O.3        1 MOL1        -0.3740
      80    C24     21.590807   24.608157   19.521903 C.3        1 MOL1         0.0138
      81    H38     20.680488   24.408633   18.941276 H          1 MOL1         0.0794
      82    H39     22.431444   24.619356   18.815227 H          1 MOL1         0.0794
      83    O20     21.484409   25.870112   20.186934 O.3        1 MOL1        -0.5486
      84    H40     22.315260   25.983024   20.700152 H          1 MOL1         0.3769
      85    C25     25.257989   17.753363   20.958334 C.3        1 MOL1         0.2972
      86    H41     25.872869   16.864395   20.766807 H          1 MOL1         0.0751
      87    O21     23.860201   17.412454   21.104035 O.3        1 MOL1        -0.3740
      88    C26     25.753324   18.523107   22.209397 C.3        1 MOL1         0.1003
      89    H42     26.762473   18.889850   21.980218 H          1 MOL1         0.0783
      90    O22     25.822517   17.684824   23.371690 O.3        1 MOL1        -0.5519
      91    H43     24.893287   17.419087   23.588165 H          1 MOL1         0.3769
      92    C27     24.851462   19.751284   22.477882 C.3        1 MOL1         0.1053
      93    H44     23.864297   19.380972   22.788526 H          1 MOL1         0.0783
      94    O23     25.432056   20.528244   23.531229 O.3        1 MOL1        -0.5519
      95    H45     25.768346   19.868083   24.179579 H          1 MOL1         0.3769
      96    C28     24.656761   20.627265   21.206800 C.3        1 MOL1         0.1018
      97    H46     25.520281   21.293824   21.079915 H          1 MOL1         0.0783
      98    C29     24.464324   19.806610   19.901815 C.3        1 MOL1         0.1043
      99    H47     23.431080   19.446765   19.881112 H          1 MOL1         0.0783
     100    O24     25.374738   18.680421   19.860122 O.3        1 MOL1        -0.3740
     101    C30     24.703483   20.662986   18.638923 C.3        1 MOL1         0.0138
     102    H48     25.741885   21.020497   18.636255 H          1 MOL1         0.0794
     103    H49     24.047724   21.543554   18.672724 H          1 MOL1         0.0794
     104    O25     24.436558   19.897582   17.460246 O.3        1 MOL1        -0.5486
     105    H50     24.983940   19.084230   17.544162 H          1 MOL1         0.3769
     106    C31     21.276754   14.279459   21.987106 C.3        1 MOL1         0.2972
     107    H51     20.839496   13.322476   22.298245 H          1 MOL1         0.0751
     108    O26     20.314992   15.102969   21.296721 O.3        1 MOL1        -0.3740
     109    C32     21.804339   15.055551   23.221595 C.3        1 MOL1         0.1003
     110    H52     22.554738   14.417628   23.706551 H          1 MOL1         0.0783
     111    O27     20.750537   15.338207   24.156899 O.3        1 MOL1        -0.5519
     112    H53     20.026184   14.690619   23.980545 H          1 MOL1         0.3769
     113    C33     22.493275   16.372446   22.794980 C.3        1 MOL1         0.1053
     114    H54     21.722353   17.040565   22.391150 H          1 MOL1         0.0783
     115    O28     23.094252   16.969780   23.947088 O.3        1 MOL1        -0.5519
     116    H55     22.393519   16.933266   24.636928 H          1 MOL1         0.3769
     117    C34     23.555211   16.131779   21.691111 C.3        1 MOL1         0.1018
     118    H56     24.440272   15.667688   22.146230 H          1 MOL1         0.0783
     119    C35     23.016553   15.229201   20.546654 C.3        1 MOL1         0.1043
     120    H57     22.276461   15.802615   19.973177 H          1 MOL1         0.0783
     121    O29     22.391395   14.045372   21.100038 O.3        1 MOL1        -0.3740
     122    C36     24.115087   14.767669   19.563093 C.3        1 MOL1         0.0138
     123    H58     24.525267   15.646163   19.047381 H          1 MOL1         0.0794
     124    H59     23.658261   14.124450   18.799085 H          1 MOL1         0.0794
     125    O30     25.158473   14.065364   20.244706 O.3        1 MOL1        -0.5486
     126    H60     24.728300   13.309486   20.703159 H          1 MOL1         0.3769
     127    N1      21.969319   20.048498   15.838343 N.4        1 MOL1        -0.5919
     128    H1      21.939615   20.782087   15.123967 H          1 MOL1         0.3682
     129    H2      22.906407   20.083365   16.274415 H          1 MOL1         0.3682
     130    H3      21.898040   19.148140   15.355931 H          1 MOL1         0.3682
     131    C1      20.883914   20.220318   16.880019 C.3        1 MOL1         0.0252
     132    H4      19.908719   20.169143   16.387271 H          1 MOL1         0.0971
     133    H5      20.999499   21.216941   17.314054 H          1 MOL1         0.0971
     134    C2      20.970251   19.164392   17.994093 C.3        1 MOL1        -0.1369
     135    H6      20.707757   18.175462   17.593789 H          1 MOL1         0.0997
     136    H7      22.004736   19.096733   18.341577 H          1 MOL1         0.0997
     137    C3      20.047646   19.513607   19.178646 C.3        1 MOL1        -0.1329
     138    H8      19.003342   19.366330   18.868830 H          1 MOL1         0.0997
     139    H9      20.159107   20.575234   19.438484 H          1 MOL1         0.0997
     140    C4      20.357689   18.658447   20.425531 C.3        1 MOL1        -0.1305
     141    H10     20.423003   17.599965   20.143283 H          1 MOL1         0.0997
     142    H11     21.339708   18.935357   20.833571 H          1 MOL1         0.0997
     143    C5      19.279080   18.836794   21.512485 C.3        1 MOL1        -0.2320
     144    H12     19.487970   18.198053   22.380805 H          1 MOL1         0.1008
     145    H13     18.292848   18.562704   21.119790 H          1 MOL1         0.1008
     146    H14     19.227959   19.877178   21.858387 H          1 MOL1         0.1008
@<TRIPOS>BOND
    1     1     2    1
    2     1     3    1
    3     1     4    1
    4     4     5    1
    5     4     6    1
    6     6     7    1
    7     4     8    1
    8     8     9    1
    9     8    10    1
   10    10    11    1
   11     8    12    1
   12    12    13    1
   13    12    14    1
   14    14    15    1
   15     1    16    1
   16    14    16    1
   17    14    17    1
   18    17    18    1
   19    17    19    1
   20    17    20    1
   21    20    21    1
   22    22    23    1
   23    22    24    1
   24    22    25    1
   25    25    26    1
   26    25    27    1
   27    27    28    1
   28    25    29    1
   29    29    30    1
   30    29    31    1
   31    31    32    1
   32     3    33    1
   33    29    33    1
   34    33    34    1
   35    33    35    1
   36    35    36    1
   37    22    37    1
   38    35    37    1
   39    35    38    1
   40    38    39    1
   41    38    40    1
   42    38    41    1
   43    41    42    1
   44    43    44    1
   45    43    45    1
   46    43    46    1
   47    46    47    1
   48    46    48    1
   49    48    49    1
   50    46    50    1
   51    50    51    1
   52    50    52    1
   53    52    53    1
   54    24    54    1
   55    50    54    1
   56    54    55    1
   57    54    56    1
   58    56    57    1
   59    43    58    1
   60    56    58    1
   61    56    59    1
   62    59    60    1
   63    59    61    1
   64    59    62    1
   65    62    63    1
   66    64    65    1
   67    64    66    1
   68    64    67    1
   69    67    68    1
   70    67    69    1
   71    69    70    1
   72    67    71    1
   73    71    72    1
   74    71    73    1
   75    73    74    1
   76    45    75    1
   77    71    75    1
   78    75    76    1
   79    75    77    1
   80    77    78    1
   81    64    79    1
   82    77    79    1
   83    77    80    1
   84    80    81    1
   85    80    82    1
   86    80    83    1
   87    83    84    1
   88    85    86    1
   89    85    87    1
   90    85    88    1
   91    88    89    1
   92    88    90    1
   93    90    91    1
   94    88    92    1
   95    92    93    1
   96    92    94    1
   97    94    95    1
   98    66    96    1
   99    92    96    1
  100    96    97    1
  101    96    98    1
  102    98    99    1
  103    85   100    1
  104    98   100    1
  105    98   101    1
  106   101   102    1
  107   101   103    1
  108   101   104    1
  109   104   105    1
  110   106   107    1
  111    12   108    1
  112   106   108    1
  113   106   109    1
  114   109   110    1
  115   109   111    1
  116   111   112    1
  117   109   113    1
  118   113   114    1
  119   113   115    1
  120   115   116    1
  121    87   117    1
  122   113   117    1
  123   117   118    1
  124   117   119    1
  125   119   120    1
  126   106   121    1
  127   119   121    1
  128   119   122    1
  129   122   123    1
  130   122   124    1
  131   122   125    1
  132   125   126    1
  133   127   128    1
  134   127   129    1
  135   127   130    1
  136   127   131    1
  137   131   132    1
  138   131   133    1
  139   131   134    1
  140   134   135    1
  141   134   136    1
  142   134   137    1
  143   137   138    1
  144   137   139    1
  145   137   140    1
  146   140   141    1
  147   140   142    1
  148   140   143    1
  149   143   144    1
  150   143   145    1
  151   143   146    1
@<TRIPOS>SUBSTRUCTURE
       1 MOL1            1 RESIDUE      1      MOL     
       2 MOL1          146 RESIDUE      1      MOL     
@<SCITEGIC>MOL_PROPERTY
VM2 Rank
SciTegic.value.IntegerValue
8

@<SCITEGIC>MOL_PROPERTY
Conf_Id
SciTegic.value.IntegerValue
9334

@<SCITEGIC>MOL_PROPERTY
Probability
SciTegic.value.DoubleValue
1.20

@<SCITEGIC>MOL_PROPERTY
Sum Probability
SciTegic.value.DoubleValue
12.73

@<SCITEGIC>MOL_PROPERTY
Delta G
SciTegic.value.DoubleValue
0.535

@<SCITEGIC>MOL_PROPERTY
G
SciTegic.value.DoubleValue
548.334

@<SCITEGIC>MOL_PROPERTY
E
SciTegic.value.DoubleValue
355.681

@<SCITEGIC>MOL_PROPERTY
-TS
SciTegic.value.DoubleValue
192.654

@<SCITEGIC>MOL_PROPERTY
U+W
SciTegic.value.DoubleValue
226.910

@<SCITEGIC>MOL_PROPERTY
U
SciTegic.value.DoubleValue
299.619

@<SCITEGIC>MOL_PROPERTY
W
SciTegic.value.DoubleValue
-72.709

@<SCITEGIC>MOL_PROPERTY
W(PB)
SciTegic.value.DoubleValue
-78.801

@<SCITEGIC>MOL_PROPERTY
W(SA)
SciTegic.value.DoubleValue
6.092

@<SCITEGIC>MOL_PROPERTY
Valence
SciTegic.value.DoubleValue
145.669

@<SCITEGIC>MOL_PROPERTY
Coulomb
SciTegic.value.DoubleValue
174.632

@<SCITEGIC>MOL_PROPERTY
VdW
SciTegic.value.DoubleValue
-20.682

@<SCITEGIC>MOL_PROPERTY
VdW6
SciTegic.value.DoubleValue
-169.234

@<SCITEGIC>MOL_PROPERTY
VdW12
SciTegic.value.DoubleValue
148.551

@<SCITEGIC>MOL_PROPERTY
Bond
SciTegic.value.DoubleValue
4.446

@<SCITEGIC>MOL_PROPERTY
Angle
SciTegic.value.DoubleValue
10.415

@<SCITEGIC>MOL_PROPERTY
Pdih
SciTegic.value.DoubleValue
130.809

@<SCITEGIC>MOL_PROPERTY
Idih
SciTegic.value.DoubleValue
0.000

@<SCITEGIC>MOL_PROPERTY
Tether
SciTegic.value.DoubleValue
0.000

