@<TRIPOS>MOLECULE
CD_guest-s13_vm2_single.mol2 : vm2 host+ligand conformer 1
         152         157           2
SMALL
USER_CHARGES
 
@<TRIPOS>ATOM
       1    C1      16.287627   15.281965   20.759676 C.3        1 MOL1         0.2972
       2    H1      15.254191   15.081307   20.448782 H          1 MOL1         0.0751
       3    O1      16.451610   16.636777   21.218915 O.3        1 MOL1        -0.3740
       4    C2      16.718877   14.322306   21.899090 C.3        1 MOL1         0.1003
       5    H2      16.622131   13.296758   21.519585 H          1 MOL1         0.0783
       6    O2      15.890055   14.478535   23.059239 O.3        1 MOL1        -0.5519
       7    H3      16.312528   13.912136   23.743762 H          1 MOL1         0.3769
       8    C3      18.199280   14.552467   22.285984 C.3        1 MOL1         0.1053
       9    H4      18.274513   15.548327   22.740923 H          1 MOL1         0.0783
      10    O3      18.596842   13.558217   23.237175 O.3        1 MOL1        -0.5519
      11    H5      19.425262   13.896652   23.659480 H          1 MOL1         0.3769
      12    C4      19.118961   14.520689   21.033721 C.3        1 MOL1         0.1018
      13    H6      19.197729   13.492271   20.656227 H          1 MOL1         0.0783
      14    C5      18.574128   15.421752   19.896122 C.3        1 MOL1         0.1043
      15    H7      18.668491   16.473092   20.195938 H          1 MOL1         0.0783
      16    O4      17.187264   15.083522   19.648540 O.3        1 MOL1        -0.3740
      17    C6      19.344150   15.223496   18.574463 C.3        1 MOL1         0.0138
      18    H8      19.189494   14.197733   18.213971 H          1 MOL1         0.0794
      19    H9      20.418477   15.355369   18.755449 H          1 MOL1         0.0794
      20    O5      18.896235   16.171240   17.604023 O.3        1 MOL1        -0.5486
      21    H10     17.918908   16.080243   17.564678 H          1 MOL1         0.3769
      22    C7      14.578306   20.240752   21.626222 C.3        1 MOL1         0.2972
      23    H11     13.920544   21.111837   21.739702 H          1 MOL1         0.0751
      24    O6      15.940601   20.624722   21.347367 O.3        1 MOL1        -0.3740
      25    C8      14.556547   19.380916   22.912565 C.3        1 MOL1         0.1003
      26    H12     13.535599   18.997908   23.039862 H          1 MOL1         0.0783
      27    O7      14.920573   20.153040   24.064635 O.3        1 MOL1        -0.5519
      28    H13     15.054239   19.486624   24.775832 H          1 MOL1         0.3769
      29    C9      15.507300   18.173803   22.764266 C.3        1 MOL1         0.1053
      30    H14     16.529646   18.564450   22.718198 H          1 MOL1         0.0783
      31    O8      15.371167   17.304946   23.894987 O.3        1 MOL1        -0.5519
      32    H15     15.703873   16.418182   23.611989 H          1 MOL1         0.3769
      33    C10     15.243336   17.380583   21.460283 C.3        1 MOL1         0.1018
      34    H16     14.379172   16.722061   21.621754 H          1 MOL1         0.0783
      35    C11     15.006749   18.286918   20.215605 C.3        1 MOL1         0.1043
      36    H17     15.980169   18.675932   19.888380 H          1 MOL1         0.0783
      37    O9      14.130176   19.395156   20.546249 O.3        1 MOL1        -0.3740
      38    C12     14.384837   17.537874   19.016198 C.3        1 MOL1         0.0138
      39    H18     15.090119   16.773514   18.664708 H          1 MOL1         0.0794
      40    H19     14.239848   18.249556   18.192366 H          1 MOL1         0.0794
      41    O10     13.139164   16.932877   19.374281 O.3        1 MOL1        -0.5486
      42    H20     12.561798   17.660301   19.696916 H          1 MOL1         0.3769
      43    C13     18.434287   23.877410   20.796340 C.3        1 MOL1         0.2972
      44    H21     18.878438   24.846961   20.536787 H          1 MOL1         0.0751
      45    O11     19.448318   22.908495   21.138248 O.3        1 MOL1        -0.3740
      46    C14     17.428642   24.024984   21.970326 C.3        1 MOL1         0.1003
      47    H22     16.641226   24.713706   21.637245 H          1 MOL1         0.0783
      48    O12     18.047994   24.559427   23.146922 O.3        1 MOL1        -0.5519
      49    H23     17.343950   24.533507   23.833861 H          1 MOL1         0.3769
      50    C15     16.762221   22.669244   22.300924 C.3        1 MOL1         0.1053
      51    H24     17.534221   22.000643   22.706402 H          1 MOL1         0.0783
      52    O13     15.732696   22.868151   23.276730 O.3        1 MOL1        -0.5519
      53    H25     15.459382   21.968012   23.584325 H          1 MOL1         0.3769
      54    C16     16.170213   22.007763   21.029835 C.3        1 MOL1         0.1018
      55    H26     15.246131   22.523305   20.735665 H          1 MOL1         0.0783
      56    C17     17.156155   22.024887   19.833945 C.3        1 MOL1         0.1043
      57    H27     17.958594   21.304601   20.032052 H          1 MOL1         0.0783
      58    O14     17.698266   23.358294   19.669246 O.3        1 MOL1        -0.3740
      59    C18     16.470194   21.633662   18.509095 C.3        1 MOL1         0.0138
      60    H28     15.729876   22.400082   18.243320 H          1 MOL1         0.0794
      61    H29     15.934652   20.684883   18.641749 H          1 MOL1         0.0794
      62    O15     17.448209   21.499157   17.476670 O.3        1 MOL1        -0.5486
      63    H30     17.966853   22.333871   17.481046 H          1 MOL1         0.3769
      64    C19     23.488358   22.619239   22.052143 C.3        1 MOL1         0.2972
      65    H31     24.527175   22.799999   22.356196 H          1 MOL1         0.0751
      66    O16     23.328017   21.319848   21.446554 O.3        1 MOL1        -0.3740
      67    C20     22.540866   22.736964   23.273068 C.3        1 MOL1         0.1003
      68    H32     22.627198   23.763108   23.653697 H          1 MOL1         0.0783
      69    O17     22.891596   21.822817   24.319587 O.3        1 MOL1        -0.5519
      70    H33     22.130425   21.866982   24.940237 H          1 MOL1         0.3769
      71    C21     21.072301   22.513088   22.852052 C.3        1 MOL1         0.1053
      72    H34     20.964909   21.474365   22.516611 H          1 MOL1         0.0783
      73    O18     20.220181   22.756827   23.977300 O.3        1 MOL1        -0.5519
      74    H35     19.415086   23.210282   23.629924 H          1 MOL1         0.3769
      75    C22     20.679059   23.435436   21.673050 C.3        1 MOL1         0.1018
      76    H36     20.554862   24.458388   22.053655 H          1 MOL1         0.0783
      77    C23     21.738720   23.417936   20.533202 C.3        1 MOL1         0.1043
      78    H37     21.685668   22.444876   20.027286 H          1 MOL1         0.0783
      79    O19     23.067142   23.606388   21.085688 O.3        1 MOL1        -0.3740
      80    C24     21.516117   24.510301   19.463627 C.3        1 MOL1         0.0138
      81    H38     20.572353   24.311092   18.939012 H          1 MOL1         0.0794
      82    H39     22.321449   24.445360   18.719725 H          1 MOL1         0.0794
      83    O20     21.488020   25.813724   20.052267 O.3        1 MOL1        -0.5486
      84    H40     22.346785   25.924995   20.517642 H          1 MOL1         0.3769
      85    C25     25.234468   17.700714   21.029950 C.3        1 MOL1         0.2972
      86    H41     25.889261   16.844099   20.824104 H          1 MOL1         0.0751
      87    O21     23.875438   17.288393   21.289379 O.3        1 MOL1        -0.3740
      88    C26     25.749614   18.529119   22.233183 C.3        1 MOL1         0.1003
      89    H42     26.727141   18.942611   21.952327 H          1 MOL1         0.0783
      90    O22     25.901871   17.727744   23.410634 O.3        1 MOL1        -0.5519
      91    H43     26.148438   18.367266   24.116591 H          1 MOL1         0.3769
      92    C27     24.794782   19.711780   22.518214 C.3        1 MOL1         0.1053
      93    H44     23.836226   19.297916   22.859159 H          1 MOL1         0.0783
      94    O23     25.357229   20.530067   23.549801 O.3        1 MOL1        -0.5519
      95    H45     24.601831   21.042965   23.930342 H          1 MOL1         0.3769
      96    C28     24.528947   20.551232   21.236171 C.3        1 MOL1         0.1018
      97    H46     25.391817   21.199898   21.034051 H          1 MOL1         0.0783
      98    C29     24.259598   19.680387   19.977188 C.3        1 MOL1         0.1043
      99    H47     23.243971   19.273732   20.035580 H          1 MOL1         0.0783
     100    O24     25.218658   18.596956   19.899335 O.3        1 MOL1        -0.3740
     101    C30     24.365654   20.502121   18.676479 C.3        1 MOL1         0.0138
     102    H48     25.400987   20.844412   18.545922 H          1 MOL1         0.0794
     103    H49     23.726530   21.391653   18.758032 H          1 MOL1         0.0794
     104    O25     23.953567   19.707532   17.562960 O.3        1 MOL1        -0.5486
     105    H50     24.479589   18.878518   17.609728 H          1 MOL1         0.3769
     106    C31     21.372574   14.080478   21.873401 C.3        1 MOL1         0.2972
     107    H51     20.906635   13.105316   22.063638 H          1 MOL1         0.0751
     108    O26     20.410639   15.046512   21.398307 O.3        1 MOL1        -0.3740
     109    C32     22.030662   14.614421   23.167968 C.3        1 MOL1         0.1003
     110    H52     22.805830   13.893307   23.458526 H          1 MOL1         0.0783
     111    O27     21.080261   14.733877   24.236167 O.3        1 MOL1        -0.5519
     112    H53     21.588481   15.148818   24.967578 H          1 MOL1         0.3769
     113    C33     22.720993   15.972815   22.916358 C.3        1 MOL1         0.1053
     114    H54     21.946801   16.718383   22.701897 H          1 MOL1         0.0783
     115    O28     23.444781   16.347361   24.093235 O.3        1 MOL1        -0.5519
     116    H55     24.188981   16.927011   23.801465 H          1 MOL1         0.3769
     117    C34     23.671317   15.921699   21.693563 C.3        1 MOL1         0.1018
     118    H56     24.609014   15.433027   21.990992 H          1 MOL1         0.0783
     119    C35     23.045135   15.191354   20.470983 C.3        1 MOL1         0.1043
     120    H57     22.291488   15.854784   20.027177 H          1 MOL1         0.0783
     121    O29     22.413840   13.952975   20.882179 O.3        1 MOL1        -0.3740
     122    C36     24.074274   14.855456   19.369086 C.3        1 MOL1         0.0138
     123    H58     24.484804   15.790633   18.965585 H          1 MOL1         0.0794
     124    H59     23.557092   14.343928   18.546294 H          1 MOL1         0.0794
     125    O30     25.128343   14.034413   19.880033 O.3        1 MOL1        -0.5486
     126    H60     24.697574   13.231969   20.250352 H          1 MOL1         0.3769
     127    C1      20.224368   19.547089   19.382965 C.3        1 MOL1        -0.2398
     128    H1      21.082487   19.395375   18.715048 H          1 MOL1         0.0972
     129    H2      19.343924   19.099664   18.902377 H          1 MOL1         0.0972
     130    H3      20.057439   20.627563   19.470438 H          1 MOL1         0.0972
     131    C2      20.490073   18.912237   20.763588 C.3        1 MOL1        -0.1383
     132    H4      21.369333   19.389989   21.209962 H          1 MOL1         0.0961
     133    H5      20.739447   17.850468   20.630446 H          1 MOL1         0.0961
     134    C3      19.277519   19.049159   21.713521 C.3        1 MOL1        -0.1407
     135    H6      19.055250   20.109587   21.893487 H          1 MOL1         0.0961
     136    H7      18.391595   18.630137   21.218421 H          1 MOL1         0.0961
     137    C4      19.488042   18.319678   23.062908 C.3        1 MOL1        -0.1407
     138    H8      19.779951   17.280077   22.869879 H          1 MOL1         0.0961
     139    H9      18.529090   18.275261   23.592818 H          1 MOL1         0.0961
     140    C5      20.536036   19.002791   23.977502 C.3        1 MOL1        -0.1472
     141    H10     21.466042   19.170386   23.421938 H          1 MOL1         0.0961
     142    H11     20.168323   19.991808   24.279766 H          1 MOL1         0.0961
     143    C6      20.873878   18.170085   25.230336 C.3        1 MOL1         0.1190
     144    H12     21.255784   17.200116   24.899838 H          1 MOL1         0.0923
     145    C7      21.974329   18.863294   26.048262 C.3        1 MOL1        -0.2463
     146    H13     22.259092   18.251061   26.912398 H          1 MOL1         0.0972
     147    H14     21.642070   19.842583   26.413933 H          1 MOL1         0.0972
     148    H15     22.874818   19.013300   25.438789 H          1 MOL1         0.0972
     149    N1      19.667411   17.890158   26.084128 N.4        1 MOL1        -0.5974
     150    H16     18.955699   17.371434   25.561824 H          1 MOL1         0.3625
     151    H17     19.914684   17.331288   26.905283 H          1 MOL1         0.3625
     152    H18     19.239552   18.758059   26.417087 H          1 MOL1         0.3625
@<TRIPOS>BOND
    1     1     2    1
    2     1     3    1
    3     1     4    1
    4     4     5    1
    5     4     6    1
    6     6     7    1
    7     4     8    1
    8     8     9    1
    9     8    10    1
   10    10    11    1
   11     8    12    1
   12    12    13    1
   13    12    14    1
   14    14    15    1
   15     1    16    1
   16    14    16    1
   17    14    17    1
   18    17    18    1
   19    17    19    1
   20    17    20    1
   21    20    21    1
   22    22    23    1
   23    22    24    1
   24    22    25    1
   25    25    26    1
   26    25    27    1
   27    27    28    1
   28    25    29    1
   29    29    30    1
   30    29    31    1
   31    31    32    1
   32     3    33    1
   33    29    33    1
   34    33    34    1
   35    33    35    1
   36    35    36    1
   37    22    37    1
   38    35    37    1
   39    35    38    1
   40    38    39    1
   41    38    40    1
   42    38    41    1
   43    41    42    1
   44    43    44    1
   45    43    45    1
   46    43    46    1
   47    46    47    1
   48    46    48    1
   49    48    49    1
   50    46    50    1
   51    50    51    1
   52    50    52    1
   53    52    53    1
   54    24    54    1
   55    50    54    1
   56    54    55    1
   57    54    56    1
   58    56    57    1
   59    43    58    1
   60    56    58    1
   61    56    59    1
   62    59    60    1
   63    59    61    1
   64    59    62    1
   65    62    63    1
   66    64    65    1
   67    64    66    1
   68    64    67    1
   69    67    68    1
   70    67    69    1
   71    69    70    1
   72    67    71    1
   73    71    72    1
   74    71    73    1
   75    73    74    1
   76    45    75    1
   77    71    75    1
   78    75    76    1
   79    75    77    1
   80    77    78    1
   81    64    79    1
   82    77    79    1
   83    77    80    1
   84    80    81    1
   85    80    82    1
   86    80    83    1
   87    83    84    1
   88    85    86    1
   89    85    87    1
   90    85    88    1
   91    88    89    1
   92    88    90    1
   93    90    91    1
   94    88    92    1
   95    92    93    1
   96    92    94    1
   97    94    95    1
   98    66    96    1
   99    92    96    1
  100    96    97    1
  101    96    98    1
  102    98    99    1
  103    85   100    1
  104    98   100    1
  105    98   101    1
  106   101   102    1
  107   101   103    1
  108   101   104    1
  109   104   105    1
  110   106   107    1
  111    12   108    1
  112   106   108    1
  113   106   109    1
  114   109   110    1
  115   109   111    1
  116   111   112    1
  117   109   113    1
  118   113   114    1
  119   113   115    1
  120   115   116    1
  121    87   117    1
  122   113   117    1
  123   117   118    1
  124   117   119    1
  125   119   120    1
  126   106   121    1
  127   119   121    1
  128   119   122    1
  129   122   123    1
  130   122   124    1
  131   122   125    1
  132   125   126    1
  133   127   128    1
  134   127   129    1
  135   127   130    1
  136   127   131    1
  137   131   132    1
  138   131   133    1
  139   131   134    1
  140   134   135    1
  141   134   136    1
  142   134   137    1
  143   137   138    1
  144   137   139    1
  145   137   140    1
  146   140   141    1
  147   140   142    1
  148   140   143    1
  149   143   144    1
  150   143   145    1
  151   145   146    1
  152   145   147    1
  153   145   148    1
  154   143   149    1
  155   149   150    1
  156   149   151    1
  157   149   152    1
@<TRIPOS>SUBSTRUCTURE
       1 MOL1            1 RESIDUE      1      MOL     
       2 MOL1          152 RESIDUE      1      MOL     
@<SCITEGIC>MOL_PROPERTY
VM2 Rank
SciTegic.value.IntegerValue
1

@<SCITEGIC>MOL_PROPERTY
Conf_Id
SciTegic.value.IntegerValue
36411

@<SCITEGIC>MOL_PROPERTY
Probability
SciTegic.value.DoubleValue
7.02

@<SCITEGIC>MOL_PROPERTY
Sum Probability
SciTegic.value.DoubleValue
7.02

@<SCITEGIC>MOL_PROPERTY
Delta G
SciTegic.value.DoubleValue
0.000

@<SCITEGIC>MOL_PROPERTY
G
SciTegic.value.DoubleValue
542.258

@<SCITEGIC>MOL_PROPERTY
E
SciTegic.value.DoubleValue
339.291

@<SCITEGIC>MOL_PROPERTY
-TS
SciTegic.value.DoubleValue
202.967

@<SCITEGIC>MOL_PROPERTY
U+W
SciTegic.value.DoubleValue
205.154

@<SCITEGIC>MOL_PROPERTY
U
SciTegic.value.DoubleValue
284.683

@<SCITEGIC>MOL_PROPERTY
W
SciTegic.value.DoubleValue
-79.506

@<SCITEGIC>MOL_PROPERTY
W(PB)
SciTegic.value.DoubleValue
-85.625

@<SCITEGIC>MOL_PROPERTY
W(SA)
SciTegic.value.DoubleValue
6.119

@<SCITEGIC>MOL_PROPERTY
Valence
SciTegic.value.DoubleValue
145.222

@<SCITEGIC>MOL_PROPERTY
Coulomb
SciTegic.value.DoubleValue
168.035

@<SCITEGIC>MOL_PROPERTY
VdW
SciTegic.value.DoubleValue
-28.575

@<SCITEGIC>MOL_PROPERTY
VdW6
SciTegic.value.DoubleValue
-180.668

@<SCITEGIC>MOL_PROPERTY
VdW12
SciTegic.value.DoubleValue
152.093

@<SCITEGIC>MOL_PROPERTY
Bond
SciTegic.value.DoubleValue
4.183

@<SCITEGIC>MOL_PROPERTY
Angle
SciTegic.value.DoubleValue
10.313

@<SCITEGIC>MOL_PROPERTY
Pdih
SciTegic.value.DoubleValue
130.726

@<SCITEGIC>MOL_PROPERTY
Idih
SciTegic.value.DoubleValue
0.000

@<SCITEGIC>MOL_PROPERTY
Tether
SciTegic.value.DoubleValue
0.000

