@<TRIPOS>MOLECULE
CD_guest-s22_vm2_single.mol2 : vm2 host+ligand conformer 1
         146         151           2
SMALL
USER_CHARGES
 
@<TRIPOS>ATOM
       1    C1      16.230082   15.082371   20.429903 C.3        1 MOL1         0.2972
       2    H1      15.191952   14.981413   20.088121 H          1 MOL1         0.0751
       3    O1      16.533662   16.441517   20.811228 O.3        1 MOL1        -0.3740
       4    C2      16.529018   14.123811   21.612346 C.3        1 MOL1         0.1003
       5    H2      16.434668   13.099445   21.229906 H          1 MOL1         0.0783
       6    O2      15.582510   14.301815   22.676703 O.3        1 MOL1        -0.5519
       7    H3      15.782141   15.177229   23.092018 H          1 MOL1         0.3769
       8    C3      17.992466   14.315996   22.093098 C.3        1 MOL1         0.1053
       9    H4      18.080279   15.322411   22.525606 H          1 MOL1         0.0783
      10    O3      18.326349   13.335848   23.082783 O.3        1 MOL1        -0.5519
      11    H5      19.098838   13.703451   23.578565 H          1 MOL1         0.3769
      12    C4      18.990577   14.208763   20.904405 C.3        1 MOL1         0.1018
      13    H6      19.124624   13.152464   20.635231 H          1 MOL1         0.0783
      14    C5      18.537304   14.981126   19.635408 C.3        1 MOL1         0.1043
      15    H7      18.698990   16.055217   19.792273 H          1 MOL1         0.0783
      16    O4      17.137094   14.716943   19.369667 O.3        1 MOL1        -0.3740
      17    C6      19.340216   14.551234   18.390018 C.3        1 MOL1         0.0138
      18    H8      19.140972   13.492140   18.178765 H          1 MOL1         0.0794
      19    H9      20.413549   14.654732   18.597815 H          1 MOL1         0.0794
      20    O5      18.980084   15.361377   17.269993 O.3        1 MOL1        -0.5486
      21    H10     17.997332   15.366426   17.243543 H          1 MOL1         0.3769
      22    C7      14.940758   20.078152   21.872645 C.3        1 MOL1         0.2972
      23    H11     14.322595   20.931921   22.177065 H          1 MOL1         0.0751
      24    O6      16.226882   20.502498   21.372081 O.3        1 MOL1        -0.3740
      25    C8      15.171225   19.130120   23.075068 C.3        1 MOL1         0.1003
      26    H12     14.189378   18.757236   23.393979 H          1 MOL1         0.0783
      27    O7      15.769439   19.862425   24.158834 O.3        1 MOL1        -0.5519
      28    H13     16.311699   19.230426   24.698293 H          1 MOL1         0.3769
      29    C9      16.025341   17.906258   22.649188 C.3        1 MOL1         0.1053
      30    H14     17.042904   18.254263   22.431749 H          1 MOL1         0.0783
      31    O8      16.054540   16.939978   23.707121 O.3        1 MOL1        -0.5519
      32    H15     16.624389   17.317208   24.426986 H          1 MOL1         0.3769
      33    C10     15.464387   17.230488   21.367216 C.3        1 MOL1         0.1018
      34    H16     14.599944   16.612797   21.644408 H          1 MOL1         0.0783
      35    C11     15.053275   18.245950   20.265112 C.3        1 MOL1         0.1043
      36    H17     15.969477   18.650503   19.816148 H          1 MOL1         0.0783
      37    O9      14.275978   19.323194   20.839561 O.3        1 MOL1        -0.3740
      38    C12     14.219408   17.616825   19.126884 C.3        1 MOL1         0.0138
      39    H18     14.834315   16.874594   18.600928 H          1 MOL1         0.0794
      40    H19     13.964509   18.401704   18.402098 H          1 MOL1         0.0794
      41    O10     13.030355   17.003294   19.633081 O.3        1 MOL1        -0.5486
      42    H20     12.545022   17.705938   20.120282 H          1 MOL1         0.3769
      43    C13     18.454857   24.013143   21.011216 C.3        1 MOL1         0.2972
      44    H21     18.794751   25.031303   20.782772 H          1 MOL1         0.0751
      45    O11     19.540582   23.168807   21.436655 O.3        1 MOL1        -0.3740
      46    C14     17.390141   24.031312   22.137819 C.3        1 MOL1         0.1003
      47    H22     16.547939   24.641466   21.786513 H          1 MOL1         0.0783
      48    O12     17.918384   24.601055   23.344036 O.3        1 MOL1        -0.5519
      49    H23     17.226282   24.428329   24.021507 H          1 MOL1         0.3769
      50    C15     16.861890   22.604830   22.423079 C.3        1 MOL1         0.1053
      51    H24     17.691369   22.017698   22.838671 H          1 MOL1         0.0783
      52    O13     15.799624   22.679075   23.381434 O.3        1 MOL1        -0.5519
      53    H25     15.715634   21.768341   23.760226 H          1 MOL1         0.3769
      54    C16     16.386701   21.910913   21.115543 C.3        1 MOL1         0.1018
      55    H26     15.447078   22.362924   20.771316 H          1 MOL1         0.0783
      56    C17     17.447560   22.030885   19.989235 C.3        1 MOL1         0.1043
      57    H27     18.311677   21.411141   20.262258 H          1 MOL1         0.0783
      58    O14     17.855043   23.413688   19.844032 O.3        1 MOL1        -0.3740
      59    C18     16.935693   21.550549   18.613200 C.3        1 MOL1         0.0138
      60    H28     16.645835   20.494772   18.685198 H          1 MOL1         0.0794
      61    H29     17.759402   21.614982   17.889815 H          1 MOL1         0.0794
      62    O15     15.826277   22.339180   18.172704 O.3        1 MOL1        -0.5486
      63    H30     16.125174   23.274660   18.216114 H          1 MOL1         0.3769
      64    C19     23.638536   22.897847   21.667086 C.3        1 MOL1         0.2972
      65    H31     24.723578   23.054752   21.711329 H          1 MOL1         0.0751
      66    O16     23.300250   21.498673   21.589596 O.3        1 MOL1        -0.3740
      67    C20     22.963852   23.502637   22.922693 C.3        1 MOL1         0.1003
      68    H32     23.163533   24.582077   22.915519 H          1 MOL1         0.0783
      69    O17     23.494452   22.933192   24.127277 O.3        1 MOL1        -0.5519
      70    H33     22.882087   23.237198   24.834627 H          1 MOL1         0.3769
      71    C21     21.432726   23.301741   22.871462 C.3        1 MOL1         0.1053
      72    H34     21.227710   22.228298   22.973104 H          1 MOL1         0.0783
      73    O18     20.816635   24.020386   23.947140 O.3        1 MOL1        -0.5519
      74    H35     19.846776   24.039440   23.754411 H          1 MOL1         0.3769
      75    C22     20.837891   23.783230   21.525455 C.3        1 MOL1         0.1018
      76    H36     20.775301   24.879336   21.546788 H          1 MOL1         0.0783
      77    C23     21.661915   23.322090   20.289571 C.3        1 MOL1         0.1043
      78    H37     21.486473   22.248843   20.138487 H          1 MOL1         0.0783
      79    O19     23.074654   23.558215   20.514588 O.3        1 MOL1        -0.3740
      80    C24     21.270534   24.048137   18.983539 C.3        1 MOL1         0.0138
      81    H38     20.229695   23.805223   18.733775 H          1 MOL1         0.0794
      82    H39     21.898700   23.667242   18.167189 H          1 MOL1         0.0794
      83    O20     21.430616   25.463903   19.113118 O.3        1 MOL1        -0.5486
      84    H40     22.367839   25.610652   19.371242 H          1 MOL1         0.3769
      85    C25     24.915358   17.701255   21.152405 C.3        1 MOL1         0.2972
      86    H41     25.559762   16.839047   20.937888 H          1 MOL1         0.0751
      87    O21     23.562917   17.292206   21.434528 O.3        1 MOL1        -0.3740
      88    C26     25.464056   18.516419   22.353950 C.3        1 MOL1         0.1003
      89    H42     26.471577   18.857524   22.082486 H          1 MOL1         0.0783
      90    O22     25.542303   17.722804   23.545088 O.3        1 MOL1        -0.5519
      91    H43     25.798968   18.357982   24.251190 H          1 MOL1         0.3769
      92    C27     24.595185   19.768143   22.619674 C.3        1 MOL1         0.1053
      93    H44     23.610598   19.432330   22.973669 H          1 MOL1         0.0783
      94    O23     25.220662   20.580785   23.620557 O.3        1 MOL1        -0.5519
      95    H45     24.601026   21.330895   23.803010 H          1 MOL1         0.3769
      96    C28     24.386874   20.593543   21.325808 C.3        1 MOL1         0.1018
      97    H46     25.316393   21.123342   21.078987 H          1 MOL1         0.0783
      98    C29     23.973597   19.710617   20.118523 C.3        1 MOL1         0.1043
      99    H47     22.946648   19.357694   20.277901 H          1 MOL1         0.0783
     100    O24     24.875099   18.580582   20.009192 O.3        1 MOL1        -0.3740
     101    C30     24.011272   20.469331   18.773810 C.3        1 MOL1         0.0138
     102    H48     23.321545   21.321608   18.822295 H          1 MOL1         0.0794
     103    H49     23.650095   19.799241   17.982410 H          1 MOL1         0.0794
     104    O25     25.335526   20.921659   18.475400 O.3        1 MOL1        -0.5486
     105    H50     25.911197   20.126554   18.528242 H          1 MOL1         0.3769
     106    C31     21.212935   13.926377   21.895587 C.3        1 MOL1         0.2972
     107    H51     20.800800   12.926098   22.079551 H          1 MOL1         0.0751
     108    O26     20.233029   14.809247   21.314044 O.3        1 MOL1        -0.3740
     109    C32     21.731242   14.543146   23.218089 C.3        1 MOL1         0.1003
     110    H52     22.534706   13.892662   23.587519 H          1 MOL1         0.0783
     111    O27     20.699242   14.617427   24.210576 O.3        1 MOL1        -0.5519
     112    H53     21.070916   15.205317   24.906311 H          1 MOL1         0.3769
     113    C33     22.335117   15.943814   22.973326 C.3        1 MOL1         0.1053
     114    H54     21.525180   16.625001   22.679036 H          1 MOL1         0.0783
     115    O28     22.955454   16.402218   24.180136 O.3        1 MOL1        -0.5519
     116    H55     23.669545   17.027663   23.909198 H          1 MOL1         0.3769
     117    C34     23.379934   15.920345   21.831295 C.3        1 MOL1         0.1018
     118    H56     24.309122   15.479462   22.217166 H          1 MOL1         0.0783
     119    C35     22.891149   15.130091   20.582792 C.3        1 MOL1         0.1043
     120    H57     22.120264   15.727900   20.079314 H          1 MOL1         0.0783
     121    O29     22.331625   13.853807   20.985996 O.3        1 MOL1        -0.3740
     122    C36     24.005632   14.847760   19.550726 C.3        1 MOL1         0.0138
     123    H58     24.355853   15.800066   19.131121 H          1 MOL1         0.0794
     124    H59     23.579904   14.265412   18.722632 H          1 MOL1         0.0794
     125    O30     25.096032   14.138954   20.146678 O.3        1 MOL1        -0.5486
     126    H60     24.716168   13.312751   20.520273 H          1 MOL1         0.3769
     127    C1      20.480461   19.575026   18.763074 C.2        1 MOL1        -0.2535
     128    H1      21.017604   19.473743   17.822235 H          1 MOL1         0.0845
     129    H2      20.046636   20.545664   18.990803 H          1 MOL1         0.0845
     130    C2      20.360621   18.542588   19.602573 C.2        1 MOL1        -0.1324
     131    H3      20.803189   17.579589   19.352433 H          1 MOL1         0.0833
     132    C3      19.624663   18.596907   20.923659 C.3        1 MOL1        -0.1813
     133    H4      19.545431   17.583401   21.334498 H          1 MOL1         0.0753
     134    H5      18.596271   18.941483   20.755840 H          1 MOL1         0.0753
     135    C4      20.329266   19.517930   21.944892 C.3        1 MOL1        -0.1855
     136    H6      21.350373   19.159005   22.126885 H          1 MOL1         0.0755
     137    H7      20.425136   20.519288   21.508305 H          1 MOL1         0.0755
     138    C5      19.570530   19.635248   23.287880 C.3        1 MOL1        -0.1855
     139    H8      18.526026   19.912176   23.099674 H          1 MOL1         0.0755
     140    H9      20.005896   20.455465   23.873811 H          1 MOL1         0.0755
     141    C6      19.621685   18.343461   24.144158 C.3        1 MOL1        -0.1958
     142    H10     19.180033   17.497544   23.606326 H          1 MOL1         0.0753
     143    H11     20.663043   18.082414   24.363294 H          1 MOL1         0.0753
     144    C7      18.888008   18.486435   25.473292 C.2        1 MOL1         0.6174
     145    O1      17.686107   18.294117   25.481950 O.co2      1 MOL1        -0.6695
     146    O2      19.529663   18.805648   26.454513 O.co2      1 MOL1        -0.6695
@<TRIPOS>BOND
    1     1     2    1
    2     1     3    1
    3     1     4    1
    4     4     5    1
    5     4     6    1
    6     6     7    1
    7     4     8    1
    8     8     9    1
    9     8    10    1
   10    10    11    1
   11     8    12    1
   12    12    13    1
   13    12    14    1
   14    14    15    1
   15     1    16    1
   16    14    16    1
   17    14    17    1
   18    17    18    1
   19    17    19    1
   20    17    20    1
   21    20    21    1
   22    22    23    1
   23    22    24    1
   24    22    25    1
   25    25    26    1
   26    25    27    1
   27    27    28    1
   28    25    29    1
   29    29    30    1
   30    29    31    1
   31    31    32    1
   32     3    33    1
   33    29    33    1
   34    33    34    1
   35    33    35    1
   36    35    36    1
   37    22    37    1
   38    35    37    1
   39    35    38    1
   40    38    39    1
   41    38    40    1
   42    38    41    1
   43    41    42    1
   44    43    44    1
   45    43    45    1
   46    43    46    1
   47    46    47    1
   48    46    48    1
   49    48    49    1
   50    46    50    1
   51    50    51    1
   52    50    52    1
   53    52    53    1
   54    24    54    1
   55    50    54    1
   56    54    55    1
   57    54    56    1
   58    56    57    1
   59    43    58    1
   60    56    58    1
   61    56    59    1
   62    59    60    1
   63    59    61    1
   64    59    62    1
   65    62    63    1
   66    64    65    1
   67    64    66    1
   68    64    67    1
   69    67    68    1
   70    67    69    1
   71    69    70    1
   72    67    71    1
   73    71    72    1
   74    71    73    1
   75    73    74    1
   76    45    75    1
   77    71    75    1
   78    75    76    1
   79    75    77    1
   80    77    78    1
   81    64    79    1
   82    77    79    1
   83    77    80    1
   84    80    81    1
   85    80    82    1
   86    80    83    1
   87    83    84    1
   88    85    86    1
   89    85    87    1
   90    85    88    1
   91    88    89    1
   92    88    90    1
   93    90    91    1
   94    88    92    1
   95    92    93    1
   96    92    94    1
   97    94    95    1
   98    66    96    1
   99    92    96    1
  100    96    97    1
  101    96    98    1
  102    98    99    1
  103    85   100    1
  104    98   100    1
  105    98   101    1
  106   101   102    1
  107   101   103    1
  108   101   104    1
  109   104   105    1
  110   106   107    1
  111    12   108    1
  112   106   108    1
  113   106   109    1
  114   109   110    1
  115   109   111    1
  116   111   112    1
  117   109   113    1
  118   113   114    1
  119   113   115    1
  120   115   116    1
  121    87   117    1
  122   113   117    1
  123   117   118    1
  124   117   119    1
  125   119   120    1
  126   106   121    1
  127   119   121    1
  128   119   122    1
  129   122   123    1
  130   122   124    1
  131   122   125    1
  132   125   126    1
  133   127   128    1
  134   127   129    1
  135   127   130    2
  136   130   131    1
  137   130   132    1
  138   132   133    1
  139   132   134    1
  140   132   135    1
  141   135   136    1
  142   135   137    1
  143   135   138    1
  144   138   139    1
  145   138   140    1
  146   138   141    1
  147   141   142    1
  148   141   143    1
  149   141   144    1
  150   144   145    1
  151   144   146    2
@<TRIPOS>SUBSTRUCTURE
       1 MOL1            1 RESIDUE      1      MOL     
       2 MOL1          146 RESIDUE      1      MOL     
@<SCITEGIC>MOL_PROPERTY
VM2 Rank
SciTegic.value.IntegerValue
1

@<SCITEGIC>MOL_PROPERTY
Conf_Id
SciTegic.value.IntegerValue
23346

@<SCITEGIC>MOL_PROPERTY
Probability
SciTegic.value.DoubleValue
7.55

@<SCITEGIC>MOL_PROPERTY
Sum Probability
SciTegic.value.DoubleValue
7.55

@<SCITEGIC>MOL_PROPERTY
Delta G
SciTegic.value.DoubleValue
0.000

@<SCITEGIC>MOL_PROPERTY
G
SciTegic.value.DoubleValue
492.062

@<SCITEGIC>MOL_PROPERTY
E
SciTegic.value.DoubleValue
304.705

@<SCITEGIC>MOL_PROPERTY
-TS
SciTegic.value.DoubleValue
187.357

@<SCITEGIC>MOL_PROPERTY
U+W
SciTegic.value.DoubleValue
175.935

@<SCITEGIC>MOL_PROPERTY
U
SciTegic.value.DoubleValue
248.383

@<SCITEGIC>MOL_PROPERTY
W
SciTegic.value.DoubleValue
-72.448

@<SCITEGIC>MOL_PROPERTY
W(PB)
SciTegic.value.DoubleValue
-78.576

@<SCITEGIC>MOL_PROPERTY
W(SA)
SciTegic.value.DoubleValue
6.127

@<SCITEGIC>MOL_PROPERTY
Valence
SciTegic.value.DoubleValue
151.972

@<SCITEGIC>MOL_PROPERTY
Coulomb
SciTegic.value.DoubleValue
122.387

@<SCITEGIC>MOL_PROPERTY
VdW
SciTegic.value.DoubleValue
-25.976

@<SCITEGIC>MOL_PROPERTY
VdW6
SciTegic.value.DoubleValue
-181.371

@<SCITEGIC>MOL_PROPERTY
VdW12
SciTegic.value.DoubleValue
155.395

@<SCITEGIC>MOL_PROPERTY
Bond
SciTegic.value.DoubleValue
4.488

@<SCITEGIC>MOL_PROPERTY
Angle
SciTegic.value.DoubleValue
11.575

@<SCITEGIC>MOL_PROPERTY
Pdih
SciTegic.value.DoubleValue
135.907

@<SCITEGIC>MOL_PROPERTY
Idih
SciTegic.value.DoubleValue
0.001

@<SCITEGIC>MOL_PROPERTY
Tether
SciTegic.value.DoubleValue
0.000

@<TRIPOS>MOLECULE
CD_guest-s22_vm2_single.mol2 : vm2 host+ligand conformer 2
         146         151           2
SMALL
USER_CHARGES
 
@<TRIPOS>ATOM
       1    C1      16.234917   15.090602   20.418976 C.3        1 MOL1         0.2972
       2    H1      15.197699   14.990770   20.074103 H          1 MOL1         0.0751
       3    O1      16.538304   16.449182   20.802643 O.3        1 MOL1        -0.3740
       4    C2      16.529731   14.130415   21.601148 C.3        1 MOL1         0.1003
       5    H2      16.436060   13.106575   21.217131 H          1 MOL1         0.0783
       6    O2      15.580068   14.307408   22.662840 O.3        1 MOL1        -0.5519
       7    H3      15.779486   15.181754   23.080491 H          1 MOL1         0.3769
       8    C3      17.991843   14.321341   22.086402 C.3        1 MOL1         0.1053
       9    H4      18.079248   15.327621   22.519293 H          1 MOL1         0.0783
      10    O3      18.321941   13.340852   23.077027 O.3        1 MOL1        -0.5519
      11    H5      19.092124   13.708657   23.576226 H          1 MOL1         0.3769
      12    C4      18.993115   14.213505   20.900398 C.3        1 MOL1         0.1018
      13    H6      19.126189   13.157231   20.630649 H          1 MOL1         0.0783
      14    C5      18.544382   14.987798   19.630908 C.3        1 MOL1         0.1043
      15    H7      18.706976   16.061554   19.789269 H          1 MOL1         0.0783
      16    O4      17.144608   14.725585   19.360901 O.3        1 MOL1        -0.3740
      17    C6      19.350154   14.558049   18.387305 C.3        1 MOL1         0.0138
      18    H8      19.150844   13.499160   18.175089 H          1 MOL1         0.0794
      19    H9      20.423020   14.660853   18.597792 H          1 MOL1         0.0794
      20    O5      18.993225   15.368836   17.266716 O.3        1 MOL1        -0.5486
      21    H10     18.010526   15.375290   17.238541 H          1 MOL1         0.3769
      22    C7      14.940472   20.083775   21.867269 C.3        1 MOL1         0.2972
      23    H11     14.320506   20.936264   22.171596 H          1 MOL1         0.0751
      24    O6      16.227712   20.510353   21.371657 O.3        1 MOL1        -0.3740
      25    C8      15.168291   19.133122   23.068180 C.3        1 MOL1         0.1003
      26    H12     14.185887   18.758306   23.383087 H          1 MOL1         0.0783
      27    O7      15.762204   19.863370   24.155682 O.3        1 MOL1        -0.5519
      28    H13     16.303583   19.230720   24.695260 H          1 MOL1         0.3769
      29    C9      16.025157   17.911285   22.641953 C.3        1 MOL1         0.1053
      30    H14     17.042852   18.260983   22.427698 H          1 MOL1         0.0783
      31    O8      16.052785   16.942926   23.698022 O.3        1 MOL1        -0.5519
      32    H15     16.620146   17.319382   24.420241 H          1 MOL1         0.3769
      33    C10     15.467882   17.237659   21.357233 C.3        1 MOL1         0.1018
      34    H16     14.602482   16.619778   21.630987 H          1 MOL1         0.0783
      35    C11     15.059838   18.255241   20.255952 C.3        1 MOL1         0.1043
      36    H17     15.977236   18.661522   19.810955 H          1 MOL1         0.0783
      37    O9      14.279743   19.330538   20.830303 O.3        1 MOL1        -0.3740
      38    C12     14.230219   17.628038   19.113554 C.3        1 MOL1         0.0138
      39    H18     14.847472   16.887525   18.587920 H          1 MOL1         0.0794
      40    H19     13.977043   18.414361   18.389732 H          1 MOL1         0.0794
      41    O10     13.040020   17.012348   19.614420 O.3        1 MOL1        -0.5486
      42    H20     12.552466   17.713462   20.101600 H          1 MOL1         0.3769
      43    C13     18.459895   24.019305   21.037093 C.3        1 MOL1         0.2972
      44    H21     18.803110   25.037925   20.815829 H          1 MOL1         0.0751
      45    O11     19.540228   23.171806   21.468949 O.3        1 MOL1        -0.3740
      46    C14     17.389839   24.035202   22.158343 C.3        1 MOL1         0.1003
      47    H22     16.550937   24.649448   21.806318 H          1 MOL1         0.0783
      48    O12     17.915512   24.597401   23.369553 O.3        1 MOL1        -0.5519
      49    H23     17.221915   24.420924   24.044409 H          1 MOL1         0.3769
      50    C15     16.856998   22.608621   22.434679 C.3        1 MOL1         0.1053
      51    H24     17.682746   22.018438   22.853373 H          1 MOL1         0.0783
      52    O13     15.789069   22.681314   23.386819 O.3        1 MOL1        -0.5519
      53    H25     15.703364   21.770012   23.763829 H          1 MOL1         0.3769
      54    C16     16.388841   21.919836   21.121799 C.3        1 MOL1         0.1018
      55    H26     15.451136   22.373245   20.774218 H          1 MOL1         0.0783
      56    C17     17.455714   22.043195   20.001516 C.3        1 MOL1         0.1043
      57    H27     18.317752   21.421400   20.276526 H          1 MOL1         0.0783
      58    O14     17.865824   23.425807   19.863894 O.3        1 MOL1        -0.3740
      59    C18     16.950159   21.569217   18.620946 C.3        1 MOL1         0.0138
      60    H28     16.657219   20.513897   18.687381 H          1 MOL1         0.0794
      61    H29     17.777828   21.634406   17.902197 H          1 MOL1         0.0794
      62    O15     15.845202   22.362413   18.177549 O.3        1 MOL1        -0.5486
      63    H30     16.145580   23.297043   18.228620 H          1 MOL1         0.3769
      64    C19     23.644862   22.893996   21.643471 C.3        1 MOL1         0.2972
      65    H31     24.729729   23.055656   21.670552 H          1 MOL1         0.0751
      66    O16     23.311263   21.492360   21.592669 O.3        1 MOL1        -0.3740
      67    C20     22.985331   23.513388   22.900229 C.3        1 MOL1         0.1003
      68    H32     23.180778   24.593389   22.875930 H          1 MOL1         0.0783
      69    O17     23.533983   22.960898   24.104817 O.3        1 MOL1        -0.5519
      70    H33     22.929939   23.271742   24.816347 H          1 MOL1         0.3769
      71    C21     21.454604   23.305768   22.871817 C.3        1 MOL1         0.1053
      72    H34     21.254317   22.232263   22.982937 H          1 MOL1         0.0783
      73    O18     20.847514   24.029560   23.949551 O.3        1 MOL1        -0.5519
      74    H35     19.875660   24.042102   23.766980 H          1 MOL1         0.3769
      75    C22     20.843441   23.776776   21.530365 C.3        1 MOL1         0.1018
      76    H36     20.790869   24.873472   21.543547 H          1 MOL1         0.0783
      77    C23     21.647350   23.298608   20.287945 C.3        1 MOL1         0.1043
      78    H37     21.475022   22.221768   20.162859 H          1 MOL1         0.0783
      79    O19     23.063921   23.533876   20.488289 O.3        1 MOL1        -0.3740
      80    C24     21.220919   23.986197   18.968926 C.3        1 MOL1         0.0138
      81    H38     20.234624   23.601162   18.678154 H          1 MOL1         0.0794
      82    H39     21.927809   23.696926   18.179787 H          1 MOL1         0.0794
      83    O20     21.168995   25.413404   19.093012 O.3        1 MOL1        -0.5486
      84    H40     20.940177   25.780345   18.211466 H          1 MOL1         0.3769
      85    C25     24.920832   17.693510   21.157445 C.3        1 MOL1         0.2972
      86    H41     25.564021   16.830092   20.944175 H          1 MOL1         0.0751
      87    O21     23.567381   17.286872   21.438096 O.3        1 MOL1        -0.3740
      88    C26     25.469661   18.508428   22.359136 C.3        1 MOL1         0.1003
      89    H42     26.478176   18.847393   22.088688 H          1 MOL1         0.0783
      90    O22     25.544813   17.715599   23.551005 O.3        1 MOL1        -0.5519
      91    H43     25.801939   18.350783   24.256932 H          1 MOL1         0.3769
      92    C27     24.602878   19.761948   22.622861 C.3        1 MOL1         0.1053
      93    H44     23.617368   19.428283   22.976303 H          1 MOL1         0.0783
      94    O23     25.228695   20.574965   23.623262 O.3        1 MOL1        -0.5519
      95    H45     24.615886   21.333134   23.795169 H          1 MOL1         0.3769
      96    C28     24.397124   20.586726   21.328397 C.3        1 MOL1         0.1018
      97    H46     25.327639   21.115432   21.083016 H          1 MOL1         0.0783
      98    C29     23.983566   19.703929   20.121162 C.3        1 MOL1         0.1043
      99    H47     22.955808   19.353090   20.279873 H          1 MOL1         0.0783
     100    O24     24.883157   18.572139   20.013581 O.3        1 MOL1        -0.3740
     101    C30     24.023941   20.461552   18.775954 C.3        1 MOL1         0.0138
     102    H48     23.336514   21.315810   18.823347 H          1 MOL1         0.0794
     103    H49     23.661341   19.791856   17.984873 H          1 MOL1         0.0794
     104    O25     25.349756   20.909692   18.478096 O.3        1 MOL1        -0.5486
     105    H50     25.923070   20.112973   18.532480 H          1 MOL1         0.3769
     106    C31     21.210794   13.927185   21.901040 C.3        1 MOL1         0.2972
     107    H51     20.795163   12.928548   22.086039 H          1 MOL1         0.0751
     108    O26     20.235561   14.811454   21.313686 O.3        1 MOL1        -0.3740
     109    C32     21.726010   14.545973   23.223760 C.3        1 MOL1         0.1003
     110    H52     22.526850   13.894687   23.597450 H          1 MOL1         0.0783
     111    O27     20.690768   14.624798   24.212528 O.3        1 MOL1        -0.5519
     112    H53     21.061254   15.213545   24.908151 H          1 MOL1         0.3769
     113    C33     22.333675   15.944743   22.977430 C.3        1 MOL1         0.1053
     114    H54     21.526014   16.626988   22.679262 H          1 MOL1         0.0783
     115    O28     22.951473   16.404798   24.184917 O.3        1 MOL1        -0.5519
     116    H55     23.668044   17.027573   23.914443 H          1 MOL1         0.3769
     117    C34     23.381966   15.916423   21.838594 C.3        1 MOL1         0.1018
     118    H56     24.309555   15.476021   22.228837 H          1 MOL1         0.0783
     119    C35     22.896731   15.122651   20.590854 C.3        1 MOL1         0.1043
     120    H57     22.129203   15.720182   20.082042 H          1 MOL1         0.0783
     121    O29     22.332737   13.849011   20.995995 O.3        1 MOL1        -0.3740
     122    C36     24.014763   14.834364   19.564276 C.3        1 MOL1         0.0138
     123    H58     24.368225   15.784400   19.142260 H          1 MOL1         0.0794
     124    H59     23.591272   14.249473   18.736826 H          1 MOL1         0.0794
     125    O30     25.101643   14.126066   20.167205 O.3        1 MOL1        -0.5486
     126    H60     24.719025   13.301850   20.542374 H          1 MOL1         0.3769
     127    C1      20.477248   19.570221   18.761619 C.2        1 MOL1        -0.2535
     128    H1      21.021847   19.468890   17.825076 H          1 MOL1         0.0845
     129    H2      20.021536   20.533995   18.975093 H          1 MOL1         0.0845
     130    C2      20.375043   18.546200   19.613577 C.2        1 MOL1        -0.1324
     131    H3      20.839574   17.589782   19.378638 H          1 MOL1         0.0833
     132    C3      19.630217   18.602303   20.929391 C.3        1 MOL1        -0.1813
     133    H4      19.541051   17.588694   21.337962 H          1 MOL1         0.0753
     134    H5      18.605573   18.955209   20.755878 H          1 MOL1         0.0753
     135    C4      20.335214   19.517790   21.955049 C.3        1 MOL1        -0.1855
     136    H6      21.354175   19.154196   22.139932 H          1 MOL1         0.0755
     137    H7      20.436849   20.519387   21.520442 H          1 MOL1         0.0755
     138    C5      19.572191   19.636305   23.295353 C.3        1 MOL1        -0.1855
     139    H8      18.529114   19.916385   23.103772 H          1 MOL1         0.0755
     140    H9      20.008101   20.454957   23.883183 H          1 MOL1         0.0755
     141    C6      19.616854   18.343410   24.150338 C.3        1 MOL1        -0.1958
     142    H10     19.174969   17.499308   23.609846 H          1 MOL1         0.0753
     143    H11     20.656711   18.079226   24.372846 H          1 MOL1         0.0753
     144    C7      18.878752   18.486758   25.476962 C.2        1 MOL1         0.6174
     145    O1      17.676756   18.294917   25.481545 O.co2      1 MOL1        -0.6695
     146    O2      19.517249   18.805609   26.460361 O.co2      1 MOL1        -0.6695
@<TRIPOS>BOND
    1     1     2    1
    2     1     3    1
    3     1     4    1
    4     4     5    1
    5     4     6    1
    6     6     7    1
    7     4     8    1
    8     8     9    1
    9     8    10    1
   10    10    11    1
   11     8    12    1
   12    12    13    1
   13    12    14    1
   14    14    15    1
   15     1    16    1
   16    14    16    1
   17    14    17    1
   18    17    18    1
   19    17    19    1
   20    17    20    1
   21    20    21    1
   22    22    23    1
   23    22    24    1
   24    22    25    1
   25    25    26    1
   26    25    27    1
   27    27    28    1
   28    25    29    1
   29    29    30    1
   30    29    31    1
   31    31    32    1
   32     3    33    1
   33    29    33    1
   34    33    34    1
   35    33    35    1
   36    35    36    1
   37    22    37    1
   38    35    37    1
   39    35    38    1
   40    38    39    1
   41    38    40    1
   42    38    41    1
   43    41    42    1
   44    43    44    1
   45    43    45    1
   46    43    46    1
   47    46    47    1
   48    46    48    1
   49    48    49    1
   50    46    50    1
   51    50    51    1
   52    50    52    1
   53    52    53    1
   54    24    54    1
   55    50    54    1
   56    54    55    1
   57    54    56    1
   58    56    57    1
   59    43    58    1
   60    56    58    1
   61    56    59    1
   62    59    60    1
   63    59    61    1
   64    59    62    1
   65    62    63    1
   66    64    65    1
   67    64    66    1
   68    64    67    1
   69    67    68    1
   70    67    69    1
   71    69    70    1
   72    67    71    1
   73    71    72    1
   74    71    73    1
   75    73    74    1
   76    45    75    1
   77    71    75    1
   78    75    76    1
   79    75    77    1
   80    77    78    1
   81    64    79    1
   82    77    79    1
   83    77    80    1
   84    80    81    1
   85    80    82    1
   86    80    83    1
   87    83    84    1
   88    85    86    1
   89    85    87    1
   90    85    88    1
   91    88    89    1
   92    88    90    1
   93    90    91    1
   94    88    92    1
   95    92    93    1
   96    92    94    1
   97    94    95    1
   98    66    96    1
   99    92    96    1
  100    96    97    1
  101    96    98    1
  102    98    99    1
  103    85   100    1
  104    98   100    1
  105    98   101    1
  106   101   102    1
  107   101   103    1
  108   101   104    1
  109   104   105    1
  110   106   107    1
  111    12   108    1
  112   106   108    1
  113   106   109    1
  114   109   110    1
  115   109   111    1
  116   111   112    1
  117   109   113    1
  118   113   114    1
  119   113   115    1
  120   115   116    1
  121    87   117    1
  122   113   117    1
  123   117   118    1
  124   117   119    1
  125   119   120    1
  126   106   121    1
  127   119   121    1
  128   119   122    1
  129   122   123    1
  130   122   124    1
  131   122   125    1
  132   125   126    1
  133   127   128    1
  134   127   129    1
  135   127   130    2
  136   130   131    1
  137   130   132    1
  138   132   133    1
  139   132   134    1
  140   132   135    1
  141   135   136    1
  142   135   137    1
  143   135   138    1
  144   138   139    1
  145   138   140    1
  146   138   141    1
  147   141   142    1
  148   141   143    1
  149   141   144    1
  150   144   145    1
  151   144   146    2
@<TRIPOS>SUBSTRUCTURE
       1 MOL1            1 RESIDUE      1      MOL     
       2 MOL1          146 RESIDUE      1      MOL     
@<SCITEGIC>MOL_PROPERTY
VM2 Rank
SciTegic.value.IntegerValue
2

@<SCITEGIC>MOL_PROPERTY
Conf_Id
SciTegic.value.IntegerValue
26002

@<SCITEGIC>MOL_PROPERTY
Probability
SciTegic.value.DoubleValue
3.20

@<SCITEGIC>MOL_PROPERTY
Sum Probability
SciTegic.value.DoubleValue
10.74

@<SCITEGIC>MOL_PROPERTY
Delta G
SciTegic.value.DoubleValue
0.512

@<SCITEGIC>MOL_PROPERTY
G
SciTegic.value.DoubleValue
492.575

@<SCITEGIC>MOL_PROPERTY
E
SciTegic.value.DoubleValue
305.391

@<SCITEGIC>MOL_PROPERTY
-TS
SciTegic.value.DoubleValue
187.184

@<SCITEGIC>MOL_PROPERTY
U+W
SciTegic.value.DoubleValue
176.620

@<SCITEGIC>MOL_PROPERTY
U
SciTegic.value.DoubleValue
251.118

@<SCITEGIC>MOL_PROPERTY
W
SciTegic.value.DoubleValue
-74.498

@<SCITEGIC>MOL_PROPERTY
W(PB)
SciTegic.value.DoubleValue
-80.627

@<SCITEGIC>MOL_PROPERTY
W(SA)
SciTegic.value.DoubleValue
6.129

@<SCITEGIC>MOL_PROPERTY
Valence
SciTegic.value.DoubleValue
151.600

@<SCITEGIC>MOL_PROPERTY
Coulomb
SciTegic.value.DoubleValue
125.566

@<SCITEGIC>MOL_PROPERTY
VdW
SciTegic.value.DoubleValue
-26.048

@<SCITEGIC>MOL_PROPERTY
VdW6
SciTegic.value.DoubleValue
-181.363

@<SCITEGIC>MOL_PROPERTY
VdW12
SciTegic.value.DoubleValue
155.315

@<SCITEGIC>MOL_PROPERTY
Bond
SciTegic.value.DoubleValue
4.499

@<SCITEGIC>MOL_PROPERTY
Angle
SciTegic.value.DoubleValue
11.695

@<SCITEGIC>MOL_PROPERTY
Pdih
SciTegic.value.DoubleValue
135.404

@<SCITEGIC>MOL_PROPERTY
Idih
SciTegic.value.DoubleValue
0.001

@<SCITEGIC>MOL_PROPERTY
Tether
SciTegic.value.DoubleValue
0.000

@<TRIPOS>MOLECULE
CD_guest-s22_vm2_single.mol2 : vm2 host+ligand conformer 3
         146         151           2
SMALL
USER_CHARGES
 
@<TRIPOS>ATOM
       1    C1      16.227268   15.085706   20.427423 C.3        1 MOL1         0.2972
       2    H1      15.189660   14.985947   20.083718 H          1 MOL1         0.0751
       3    O1      16.531227   16.444223   20.810586 O.3        1 MOL1        -0.3740
       4    C2      16.523272   14.125620   21.609455 C.3        1 MOL1         0.1003
       5    H2      16.428234   13.101739   21.225887 H          1 MOL1         0.0783
       6    O2      15.575522   14.303796   22.672689 O.3        1 MOL1        -0.5519
       7    H3      15.776458   15.178075   23.089779 H          1 MOL1         0.3769
       8    C3      17.986152   14.315541   22.092714 C.3        1 MOL1         0.1053
       9    H4      18.074340   15.321180   22.526933 H          1 MOL1         0.0783
      10    O3      18.317967   13.333447   23.081208 O.3        1 MOL1        -0.5519
      11    H5      19.094501   13.696066   23.574379 H          1 MOL1         0.3769
      12    C4      18.985901   14.209197   20.905531 C.3        1 MOL1         0.1018
      13    H6      19.119191   13.153160   20.634915 H          1 MOL1         0.0783
      14    C5      18.535848   14.983808   19.636871 C.3        1 MOL1         0.1043
      15    H7      18.698067   16.057516   19.795534 H          1 MOL1         0.0783
      16    O4      17.135908   14.720928   19.368292 O.3        1 MOL1        -0.3740
      17    C6      19.340937   14.554975   18.392522 C.3        1 MOL1         0.0138
      18    H8      19.141102   13.496390   18.179284 H          1 MOL1         0.0794
      19    H9      20.413949   14.657072   18.602765 H          1 MOL1         0.0794
      20    O5      18.983963   15.367130   17.272940 O.3        1 MOL1        -0.5486
      21    H10     18.001277   15.373385   17.244533 H          1 MOL1         0.3769
      22    C7      14.940435   20.080316   21.875579 C.3        1 MOL1         0.2972
      23    H11     14.323073   20.934284   22.181075 H          1 MOL1         0.0751
      24    O6      16.226360   20.504158   21.374104 O.3        1 MOL1        -0.3740
      25    C8      15.171402   19.131478   23.077259 C.3        1 MOL1         0.1003
      26    H12     14.189612   18.759079   23.396914 H          1 MOL1         0.0783
      27    O7      15.771213   19.862819   24.160809 O.3        1 MOL1        -0.5519
      28    H13     16.313111   19.230038   24.699718 H          1 MOL1         0.3769
      29    C9      16.024337   17.907308   22.649948 C.3        1 MOL1         0.1053
      30    H14     17.042056   18.254798   22.432316 H          1 MOL1         0.0783
      31    O8      16.053355   16.940115   23.707083 O.3        1 MOL1        -0.5519
      32    H15     16.623805   17.316364   24.426988 H          1 MOL1         0.3769
      33    C10     15.462330   17.232859   21.367730 C.3        1 MOL1         0.1018
      34    H16     14.597942   16.615098   21.644909 H          1 MOL1         0.0783
      35    C11     15.050671   18.249251   20.266698 C.3        1 MOL1         0.1043
      36    H17     15.966668   18.653704   19.817242 H          1 MOL1         0.0783
      37    O9      14.274330   19.326394   20.842610 O.3        1 MOL1        -0.3740
      38    C12     14.215569   17.621370   19.128688 C.3        1 MOL1         0.0138
      39    H18     14.829781   16.879457   18.601480 H          1 MOL1         0.0794
      40    H19     13.960221   18.406977   18.404847 H          1 MOL1         0.0794
      41    O10     13.026807   17.007718   19.635413 O.3        1 MOL1        -0.5486
      42    H20     12.542120   17.710044   20.123709 H          1 MOL1         0.3769
      43    C13     18.455341   24.013530   21.010062 C.3        1 MOL1         0.2972
      44    H21     18.795556   25.031523   20.781383 H          1 MOL1         0.0751
      45    O11     19.541093   23.168285   21.433687 O.3        1 MOL1        -0.3740
      46    C14     17.392227   24.032172   22.138177 C.3        1 MOL1         0.1003
      47    H22     16.549738   24.642590   21.788016 H          1 MOL1         0.0783
      48    O12     17.922302   24.601821   23.343615 O.3        1 MOL1        -0.5519
      49    H23     17.231189   24.429094   24.022102 H          1 MOL1         0.3769
      50    C15     16.863911   22.605874   22.424164 C.3        1 MOL1         0.1053
      51    H24     17.693853   22.018300   22.838231 H          1 MOL1         0.0783
      52    O13     15.803256   22.680249   23.384301 O.3        1 MOL1        -0.5519
      53    H25     15.719206   21.769334   23.762649 H          1 MOL1         0.3769
      54    C16     16.386269   21.912470   21.117289 C.3        1 MOL1         0.1018
      55    H26     15.446240   22.364911   20.774736 H          1 MOL1         0.0783
      56    C17     17.445249   22.032165   19.989179 C.3        1 MOL1         0.1043
      57    H27     18.309445   21.411812   20.260561 H          1 MOL1         0.0783
      58    O14     17.853346   23.414759   19.843666 O.3        1 MOL1        -0.3740
      59    C18     16.930725   21.552625   18.613859 C.3        1 MOL1         0.0138
      60    H28     16.640370   20.497003   18.685955 H          1 MOL1         0.0794
      61    H29     17.753216   21.616853   17.889073 H          1 MOL1         0.0794
      62    O15     15.821014   22.342066   18.175573 O.3        1 MOL1        -0.5486
      63    H30     16.120534   23.277355   18.218818 H          1 MOL1         0.3769
      64    C19     23.639240   22.893075   21.659838 C.3        1 MOL1         0.2972
      65    H31     24.724480   23.049144   21.702108 H          1 MOL1         0.0751
      66    O16     23.299599   21.493932   21.587567 O.3        1 MOL1        -0.3740
      67    C20     22.966661   23.503166   22.914063 C.3        1 MOL1         0.1003
      68    H32     23.167275   24.582396   22.902480 H          1 MOL1         0.0783
      69    O17     23.498127   22.938086   24.120279 O.3        1 MOL1        -0.5519
      70    H33     22.886841   23.245542   24.827086 H          1 MOL1         0.3769
      71    C21     21.435305   23.303538   22.865598 C.3        1 MOL1         0.1053
      72    H34     21.229241   22.230645   22.971215 H          1 MOL1         0.0783
      73    O18     20.821506   24.026555   23.939661 O.3        1 MOL1        -0.5519
      74    H35     19.851189   24.044741   23.749070 H          1 MOL1         0.3769
      75    C22     20.839386   23.781140   21.518704 C.3        1 MOL1         0.1018
      76    H36     20.778480   24.877405   21.536191 H          1 MOL1         0.0783
      77    C23     21.661222   23.314517   20.283424 C.3        1 MOL1         0.1043
      78    H37     21.484393   22.240941   20.136434 H          1 MOL1         0.0783
      79    O19     23.074542   23.549865   20.505683 O.3        1 MOL1        -0.3740
      80    C24     21.268820   24.036318   18.975360 C.3        1 MOL1         0.0138
      81    H38     20.227137   23.794232   18.728318 H          1 MOL1         0.0794
      82    H39     21.894948   23.651314   18.159372 H          1 MOL1         0.0794
      83    O20     21.431507   25.452287   19.099397 O.3        1 MOL1        -0.5486
      84    H40     22.369324   25.598366   19.355740 H          1 MOL1         0.3769
      85    C25     24.913475   17.693630   21.166271 C.3        1 MOL1         0.2972
      86    H41     25.558664   16.831398   20.955640 H          1 MOL1         0.0751
      87    O21     23.561865   17.285019   21.451272 O.3        1 MOL1        -0.3740
      88    C26     25.461481   18.513342   22.365004 C.3        1 MOL1         0.1003
      89    H42     26.469674   18.852315   22.093409 H          1 MOL1         0.0783
      90    O22     25.537118   17.724686   23.559719 O.3        1 MOL1        -0.5519
      91    H43     25.791531   18.362995   24.263770 H          1 MOL1         0.3769
      92    C27     24.593539   19.766851   22.624997 C.3        1 MOL1         0.1053
      93    H44     23.608819   19.433243   22.980724 H          1 MOL1         0.0783
      94    O23     25.219999   20.583341   23.622136 O.3        1 MOL1        -0.5519
      95    H45     24.601047   21.334732   23.801613 H          1 MOL1         0.3769
      96    C28     24.385419   20.586653   21.327569 C.3        1 MOL1         0.1018
      97    H46     25.315276   21.114564   21.078000 H          1 MOL1         0.0783
      98    C29     23.971125   19.698535   20.124455 C.3        1 MOL1         0.1043
      99    H47     22.944366   19.346187   20.286116 H          1 MOL1         0.0783
     100    O24     24.872591   18.568139   20.019298 O.3        1 MOL1        -0.3740
     101    C30     24.007738   20.451478   18.776483 C.3        1 MOL1         0.0138
     102    H48     23.318257   21.304137   18.821967 H          1 MOL1         0.0794
     103    H49     23.645662   19.778090   17.988304 H          1 MOL1         0.0794
     104    O25     25.331849   20.902137   18.474940 O.3        1 MOL1        -0.5486
     105    H50     25.907407   20.107210   18.531483 H          1 MOL1         0.3769
     106    C31     21.209135   13.919141   21.890216 C.3        1 MOL1         0.2972
     107    H51     20.796453   12.917980   22.067950 H          1 MOL1         0.0751
     108    O26     20.227698   14.807624   21.319697 O.3        1 MOL1        -0.3740
     109    C32     21.733007   14.523944   23.215842 C.3        1 MOL1         0.1003
     110    H52     22.538103   13.870315   23.576171 H          1 MOL1         0.0783
     111    O27     20.704436   14.590206   24.212651 O.3        1 MOL1        -0.5519
     112    H53     21.078396   15.173390   24.911155 H          1 MOL1         0.3769
     113    C33     22.335433   15.926421   22.980030 C.3        1 MOL1         0.1053
     114    H54     21.524976   16.608572   22.689461 H          1 MOL1         0.0783
     115    O28     22.955443   16.379473   24.189260 O.3        1 MOL1        -0.5519
     116    H55     23.667328   17.008645   23.920875 H          1 MOL1         0.3769
     117    C34     23.379779   15.909777   21.837934 C.3        1 MOL1         0.1018
     118    H56     24.308130   15.465298   22.221694 H          1 MOL1         0.0783
     119    C35     22.891417   15.127957   20.583932 C.3        1 MOL1         0.1043
     120    H57     22.118355   15.730371   20.089722 H          1 MOL1         0.0783
     121    O29     22.322665   13.851777   20.975181 O.3        1 MOL1        -0.3740
     122    C36     24.001466   14.865327   19.538173 C.3        1 MOL1         0.0138
     123    H58     24.254064   15.816972   19.051226 H          1 MOL1         0.0794
     124    H59     23.599693   14.200162   18.762129 H          1 MOL1         0.0794
     125    O30     25.175901   14.291893   20.126645 O.3        1 MOL1        -0.5486
     126    H60     25.798752   14.075974   19.398668 H          1 MOL1         0.3769
     127    C1      20.476571   19.574256   18.761840 C.2        1 MOL1        -0.2535
     128    H1      21.013395   19.473148   17.820801 H          1 MOL1         0.0845
     129    H2      20.040304   20.544025   18.988545 H          1 MOL1         0.0845
     130    C2      20.359962   18.542647   19.602794 C.2        1 MOL1        -0.1324
     131    H3      20.804878   17.580449   19.353716 H          1 MOL1         0.0833
     132    C3      19.624469   18.596854   20.924131 C.3        1 MOL1        -0.1813
     133    H4      19.544041   17.583143   21.334220 H          1 MOL1         0.0753
     134    H5      18.596533   18.943156   20.757037 H          1 MOL1         0.0753
     135    C4      20.330814   19.515966   21.945802 C.3        1 MOL1        -0.1855
     136    H6      21.351313   19.155082   22.127322 H          1 MOL1         0.0755
     137    H7      20.428155   20.517488   21.509921 H          1 MOL1         0.0755
     138    C5      19.572760   19.633354   23.289116 C.3        1 MOL1        -0.1855
     139    H8      18.528562   19.911938   23.101531 H          1 MOL1         0.0755
     140    H9      20.009623   20.452491   23.875478 H          1 MOL1         0.0755
     141    C6      19.622445   18.340686   24.144198 C.3        1 MOL1        -0.1958
     142    H10     19.179562   17.495860   23.605662 H          1 MOL1         0.0753
     143    H11     20.663512   18.077909   24.362872 H          1 MOL1         0.0753
     144    C7      18.889025   18.483460   25.473491 C.2        1 MOL1         0.6174
     145    O1      17.687041   18.291610   25.482214 O.co2      1 MOL1        -0.6695
     146    O2      19.530851   18.802578   26.454634 O.co2      1 MOL1        -0.6695
@<TRIPOS>BOND
    1     1     2    1
    2     1     3    1
    3     1     4    1
    4     4     5    1
    5     4     6    1
    6     6     7    1
    7     4     8    1
    8     8     9    1
    9     8    10    1
   10    10    11    1
   11     8    12    1
   12    12    13    1
   13    12    14    1
   14    14    15    1
   15     1    16    1
   16    14    16    1
   17    14    17    1
   18    17    18    1
   19    17    19    1
   20    17    20    1
   21    20    21    1
   22    22    23    1
   23    22    24    1
   24    22    25    1
   25    25    26    1
   26    25    27    1
   27    27    28    1
   28    25    29    1
   29    29    30    1
   30    29    31    1
   31    31    32    1
   32     3    33    1
   33    29    33    1
   34    33    34    1
   35    33    35    1
   36    35    36    1
   37    22    37    1
   38    35    37    1
   39    35    38    1
   40    38    39    1
   41    38    40    1
   42    38    41    1
   43    41    42    1
   44    43    44    1
   45    43    45    1
   46    43    46    1
   47    46    47    1
   48    46    48    1
   49    48    49    1
   50    46    50    1
   51    50    51    1
   52    50    52    1
   53    52    53    1
   54    24    54    1
   55    50    54    1
   56    54    55    1
   57    54    56    1
   58    56    57    1
   59    43    58    1
   60    56    58    1
   61    56    59    1
   62    59    60    1
   63    59    61    1
   64    59    62    1
   65    62    63    1
   66    64    65    1
   67    64    66    1
   68    64    67    1
   69    67    68    1
   70    67    69    1
   71    69    70    1
   72    67    71    1
   73    71    72    1
   74    71    73    1
   75    73    74    1
   76    45    75    1
   77    71    75    1
   78    75    76    1
   79    75    77    1
   80    77    78    1
   81    64    79    1
   82    77    79    1
   83    77    80    1
   84    80    81    1
   85    80    82    1
   86    80    83    1
   87    83    84    1
   88    85    86    1
   89    85    87    1
   90    85    88    1
   91    88    89    1
   92    88    90    1
   93    90    91    1
   94    88    92    1
   95    92    93    1
   96    92    94    1
   97    94    95    1
   98    66    96    1
   99    92    96    1
  100    96    97    1
  101    96    98    1
  102    98    99    1
  103    85   100    1
  104    98   100    1
  105    98   101    1
  106   101   102    1
  107   101   103    1
  108   101   104    1
  109   104   105    1
  110   106   107    1
  111    12   108    1
  112   106   108    1
  113   106   109    1
  114   109   110    1
  115   109   111    1
  116   111   112    1
  117   109   113    1
  118   113   114    1
  119   113   115    1
  120   115   116    1
  121    87   117    1
  122   113   117    1
  123   117   118    1
  124   117   119    1
  125   119   120    1
  126   106   121    1
  127   119   121    1
  128   119   122    1
  129   122   123    1
  130   122   124    1
  131   122   125    1
  132   125   126    1
  133   127   128    1
  134   127   129    1
  135   127   130    2
  136   130   131    1
  137   130   132    1
  138   132   133    1
  139   132   134    1
  140   132   135    1
  141   135   136    1
  142   135   137    1
  143   135   138    1
  144   138   139    1
  145   138   140    1
  146   138   141    1
  147   141   142    1
  148   141   143    1
  149   141   144    1
  150   144   145    1
  151   144   146    2
@<TRIPOS>SUBSTRUCTURE
       1 MOL1            1 RESIDUE      1      MOL     
       2 MOL1          146 RESIDUE      1      MOL     
@<SCITEGIC>MOL_PROPERTY
VM2 Rank
SciTegic.value.IntegerValue
3

@<SCITEGIC>MOL_PROPERTY
Conf_Id
SciTegic.value.IntegerValue
21379

@<SCITEGIC>MOL_PROPERTY
Probability
SciTegic.value.DoubleValue
2.92

@<SCITEGIC>MOL_PROPERTY
Sum Probability
SciTegic.value.DoubleValue
13.66

@<SCITEGIC>MOL_PROPERTY
Delta G
SciTegic.value.DoubleValue
0.566

@<SCITEGIC>MOL_PROPERTY
G
SciTegic.value.DoubleValue
492.629

@<SCITEGIC>MOL_PROPERTY
E
SciTegic.value.DoubleValue
305.387

@<SCITEGIC>MOL_PROPERTY
-TS
SciTegic.value.DoubleValue
187.241

@<SCITEGIC>MOL_PROPERTY
U+W
SciTegic.value.DoubleValue
176.616

@<SCITEGIC>MOL_PROPERTY
U
SciTegic.value.DoubleValue
251.385

@<SCITEGIC>MOL_PROPERTY
W
SciTegic.value.DoubleValue
-74.768

@<SCITEGIC>MOL_PROPERTY
W(PB)
SciTegic.value.DoubleValue
-80.897

@<SCITEGIC>MOL_PROPERTY
W(SA)
SciTegic.value.DoubleValue
6.129

@<SCITEGIC>MOL_PROPERTY
Valence
SciTegic.value.DoubleValue
151.745

@<SCITEGIC>MOL_PROPERTY
Coulomb
SciTegic.value.DoubleValue
125.583

@<SCITEGIC>MOL_PROPERTY
VdW
SciTegic.value.DoubleValue
-25.943

@<SCITEGIC>MOL_PROPERTY
VdW6
SciTegic.value.DoubleValue
-181.228

@<SCITEGIC>MOL_PROPERTY
VdW12
SciTegic.value.DoubleValue
155.285

@<SCITEGIC>MOL_PROPERTY
Bond
SciTegic.value.DoubleValue
4.503

@<SCITEGIC>MOL_PROPERTY
Angle
SciTegic.value.DoubleValue
11.710

@<SCITEGIC>MOL_PROPERTY
Pdih
SciTegic.value.DoubleValue
135.530

@<SCITEGIC>MOL_PROPERTY
Idih
SciTegic.value.DoubleValue
0.001

@<SCITEGIC>MOL_PROPERTY
Tether
SciTegic.value.DoubleValue
0.000

@<TRIPOS>MOLECULE
CD_guest-s22_vm2_single.mol2 : vm2 host+ligand conformer 4
         146         151           2
SMALL
USER_CHARGES
 
@<TRIPOS>ATOM
       1    C1      16.290019   15.065318   20.437876 C.3        1 MOL1         0.2972
       2    H1      15.257557   14.952229   20.082988 H          1 MOL1         0.0751
       3    O1      16.576794   16.430819   20.809884 O.3        1 MOL1        -0.3740
       4    C2      16.581241   14.119972   21.632835 C.3        1 MOL1         0.1003
       5    H2      16.502611   13.091485   21.257973 H          1 MOL1         0.0783
       6    O2      15.617845   14.296860   22.682038 O.3        1 MOL1        -0.5519
       7    H3      15.806345   15.175190   23.096307 H          1 MOL1         0.3769
       8    C3      18.035977   14.331280   22.131550 C.3        1 MOL1         0.1053
       9    H4      18.109690   15.344595   22.550267 H          1 MOL1         0.0783
      10    O3      18.363403   13.369262   23.141051 O.3        1 MOL1        -0.5519
      11    H5      19.117830   13.756943   23.649139 H          1 MOL1         0.3769
      12    C4      19.050370   14.215824   20.957066 C.3        1 MOL1         0.1018
      13    H6      19.190844   13.157610   20.699040 H          1 MOL1         0.0783
      14    C5      18.609293   14.975752   19.675908 C.3        1 MOL1         0.1043
      15    H7      18.759717   16.052253   19.827200 H          1 MOL1         0.0783
      16    O4      17.214624   14.697706   19.393609 O.3        1 MOL1        -0.3740
      17    C6      19.431634   14.546014   18.442892 C.3        1 MOL1         0.0138
      18    H8      19.264902   13.477763   18.250764 H          1 MOL1         0.0794
      19    H9      20.500786   14.685701   18.652413 H          1 MOL1         0.0794
      20    O5      19.051024   15.323594   17.306415 O.3        1 MOL1        -0.5486
      21    H10     18.068270   15.306922   17.284440 H          1 MOL1         0.3769
      22    C7      14.946207   20.060700   21.836182 C.3        1 MOL1         0.2972
      23    H11     14.319159   20.911858   22.129583 H          1 MOL1         0.0751
      24    O6      16.234226   20.491079   21.345852 O.3        1 MOL1        -0.3740
      25    C8      15.171208   19.120845   23.046002 C.3        1 MOL1         0.1003
      26    H12     14.188893   18.742237   23.356631 H          1 MOL1         0.0783
      27    O7      15.752543   19.863140   24.132129 O.3        1 MOL1        -0.5519
      28    H13     16.290485   19.237371   24.683053 H          1 MOL1         0.3769
      29    C9      16.038823   17.901260   22.635533 C.3        1 MOL1         0.1053
      30    H14     17.055963   18.255702   22.426452 H          1 MOL1         0.0783
      31    O8      16.064122   16.941510   23.699432 O.3        1 MOL1        -0.5519
      32    H15     16.621764   17.327720   24.424040 H          1 MOL1         0.3769
      33    C10     15.495995   17.214137   21.351618 C.3        1 MOL1         0.1018
      34    H16     14.633679   16.591087   21.623341 H          1 MOL1         0.0783
      35    C11     15.087831   18.220452   20.240046 C.3        1 MOL1         0.1043
      36    H17     16.005227   18.629356   19.797425 H          1 MOL1         0.0783
      37    O9      14.297101   19.295163   20.800886 O.3        1 MOL1        -0.3740
      38    C12     14.269599   17.578518   19.097636 C.3        1 MOL1         0.0138
      39    H18     14.894738   16.837214   18.582539 H          1 MOL1         0.0794
      40    H19     14.016561   18.357068   18.365414 H          1 MOL1         0.0794
      41    O10     13.079780   16.960039   19.595950 O.3        1 MOL1        -0.5486
      42    H20     12.585190   17.662251   20.074386 H          1 MOL1         0.3769
      43    C13     18.451117   24.008015   20.996425 C.3        1 MOL1         0.2972
      44    H21     18.790941   25.026453   20.769191 H          1 MOL1         0.0751
      45    O11     19.534377   23.166775   21.434461 O.3        1 MOL1        -0.3740
      46    C14     17.375654   24.026551   22.112603 C.3        1 MOL1         0.1003
      47    H22     16.535227   24.633396   21.751449 H          1 MOL1         0.0783
      48    O12     17.890869   24.601294   23.322083 O.3        1 MOL1        -0.5519
      49    H23     17.193041   24.428309   23.993577 H          1 MOL1         0.3769
      50    C15     16.848563   22.599475   22.396892 C.3        1 MOL1         0.1053
      51    H24     17.675300   22.016017   22.823031 H          1 MOL1         0.0783
      52    O13     15.776115   22.674069   23.343778 O.3        1 MOL1        -0.5519
      53    H25     15.691635   21.764727   23.725782 H          1 MOL1         0.3769
      54    C16     16.388667   21.899665   21.087010 C.3        1 MOL1         0.1018
      55    H26     15.449703   22.345796   20.733449 H          1 MOL1         0.0783
      56    C17     17.458342   22.021395   19.969259 C.3        1 MOL1         0.1043
      57    H27     18.322136   21.404684   20.250214 H          1 MOL1         0.0783
      58    O14     17.863128   23.405018   19.825119 O.3        1 MOL1        -0.3740
      59    C18     16.958623   21.537520   18.589972 C.3        1 MOL1         0.0138
      60    H28     16.670259   20.481268   18.661560 H          1 MOL1         0.0794
      61    H29     17.787916   21.602495   17.873058 H          1 MOL1         0.0794
      62    O15     15.851165   22.323070   18.139186 O.3        1 MOL1        -0.5486
      63    H30     16.147633   23.259281   18.183786 H          1 MOL1         0.3769
      64    C19     23.634263   22.909043   21.697520 C.3        1 MOL1         0.2972
      65    H31     24.717733   23.074693   21.747597 H          1 MOL1         0.0751
      66    O16     23.307294   21.506335   21.635917 O.3        1 MOL1        -0.3740
      67    C20     22.947099   23.524346   22.941241 C.3        1 MOL1         0.1003
      68    H32     23.142980   24.604370   22.924309 H          1 MOL1         0.0783
      69    O17     23.470470   22.969312   24.155744 O.3        1 MOL1        -0.5519
      70    H33     22.852507   23.279555   24.855449 H          1 MOL1         0.3769
      71    C21     21.417100   23.317469   22.880667 C.3        1 MOL1         0.1053
      72    H34     21.214887   22.244621   22.993311 H          1 MOL1         0.0783
      73    O18     20.790473   24.046552   23.943173 O.3        1 MOL1        -0.5519
      74    H35     19.821663   24.057628   23.744494 H          1 MOL1         0.3769
      75    C22     20.831415   23.781535   21.524618 C.3        1 MOL1         0.1018
      76    H36     20.769440   24.877852   21.531183 H          1 MOL1         0.0783
      77    C23     21.664731   23.304476   20.301256 C.3        1 MOL1         0.1043
      78    H37     21.494739   22.228279   20.165167 H          1 MOL1         0.0783
      79    O19     23.074642   23.550597   20.532417 O.3        1 MOL1        -0.3740
      80    C24     21.279565   24.009463   18.981898 C.3        1 MOL1         0.0138
      81    H38     20.241200   23.759443   18.729023 H          1 MOL1         0.0794
      82    H39     21.914259   23.618338   18.175503 H          1 MOL1         0.0794
      83    O20     21.434417   25.427540   19.091115 O.3        1 MOL1        -0.5486
      84    H40     22.369284   25.580980   19.353837 H          1 MOL1         0.3769
      85    C25     24.964960   17.722230   21.218786 C.3        1 MOL1         0.2972
      86    H41     25.625482   16.870591   21.014720 H          1 MOL1         0.0751
      87    O21     23.612013   17.292349   21.468631 O.3        1 MOL1        -0.3740
      88    C26     25.484621   18.542717   22.429392 C.3        1 MOL1         0.1003
      89    H42     26.490255   18.899476   22.171165 H          1 MOL1         0.0783
      90    O22     25.562735   17.746979   23.618429 O.3        1 MOL1        -0.5519
      91    H43     25.806432   18.383079   24.328513 H          1 MOL1         0.3769
      92    C27     24.595636   19.782129   22.684414 C.3        1 MOL1         0.1053
      93    H44     23.608776   19.433999   23.019399 H          1 MOL1         0.0783
      94    O23     25.193956   20.599362   23.698004 O.3        1 MOL1        -0.5519
      95    H45     24.569394   21.349822   23.861315 H          1 MOL1         0.3769
      96    C28     24.403460   20.608040   21.388521 C.3        1 MOL1         0.1018
      97    H46     25.334013   21.143821   21.159109 H          1 MOL1         0.0783
      98    C29     24.018737   19.722923   20.173280 C.3        1 MOL1         0.1043
      99    H47     22.993322   19.358777   20.316366 H          1 MOL1         0.0783
     100    O24     24.934890   18.602898   20.076875 O.3        1 MOL1        -0.3740
     101    C30     24.069028   20.483623   18.830135 C.3        1 MOL1         0.0138
     102    H48     23.367462   21.326682   18.867800 H          1 MOL1         0.0794
     103    H49     23.729818   19.809799   18.032173 H          1 MOL1         0.0794
     104    O25     25.392092   20.953564   18.554407 O.3        1 MOL1        -0.5486
     105    H50     25.976841   20.165546   18.612875 H          1 MOL1         0.3769
     106    C31     21.248379   13.951367   22.004567 C.3        1 MOL1         0.2972
     107    H51     20.826653   12.959641   22.211498 H          1 MOL1         0.0751
     108    O26     20.286340   14.822244   21.376760 O.3        1 MOL1        -0.3740
     109    C32     21.747216   14.605600   23.315144 C.3        1 MOL1         0.1003
     110    H52     22.537924   13.960603   23.719998 H          1 MOL1         0.0783
     111    O27     20.697460   14.719182   24.285155 O.3        1 MOL1        -0.5519
     112    H53     21.060994   15.324773   24.969778 H          1 MOL1         0.3769
     113    C33     22.368237   15.992349   23.035693 C.3        1 MOL1         0.1053
     114    H54     21.566924   16.671861   22.714735 H          1 MOL1         0.0783
     115    O28     22.976775   16.477031   24.237843 O.3        1 MOL1        -0.5519
     116    H55     23.699366   17.090109   23.961998 H          1 MOL1         0.3769
     117    C34     23.425936   15.931681   21.904117 C.3        1 MOL1         0.1018
     118    H56     24.351824   15.500012   22.308162 H          1 MOL1         0.0783
     119    C35     22.949303   15.104082   20.675436 C.3        1 MOL1         0.1043
     120    H57     22.194589   15.686980   20.131201 H          1 MOL1         0.0783
     121    O29     22.385820   13.844125   21.123832 O.3        1 MOL1        -0.3740
     122    C36     24.093668   14.770530   19.695654 C.3        1 MOL1         0.0138
     123    H58     24.869690   14.200229   20.223551 H          1 MOL1         0.0794
     124    H59     24.545977   15.702313   19.332184 H          1 MOL1         0.0794
     125    O30     23.584996   14.020237   18.591177 O.3        1 MOL1        -0.5486
     126    H60     23.064483   13.283695   18.983570 H          1 MOL1         0.3769
     127    C1      20.517697   19.546429   18.785640 C.2        1 MOL1        -0.2535
     128    H1      21.080541   19.441761   17.860305 H          1 MOL1         0.0845
     129    H2      20.033002   20.501540   18.972738 H          1 MOL1         0.0845
     130    C2      20.429007   18.536779   19.656046 C.2        1 MOL1        -0.1324
     131    H3      20.923412   17.588879   19.448301 H          1 MOL1         0.0833
     132    C3      19.661374   18.599169   20.958213 C.3        1 MOL1        -0.1813
     133    H4      19.569998   17.588432   21.373231 H          1 MOL1         0.0753
     134    H5      18.638334   18.946807   20.765419 H          1 MOL1         0.0753
     135    C4      20.346223   19.526721   21.986250 C.3        1 MOL1        -0.1855
     136    H6      21.366141   19.173259   22.184579 H          1 MOL1         0.0755
     137    H7      20.444057   20.526059   21.545553 H          1 MOL1         0.0755
     138    C5      19.567332   19.646613   23.317316 C.3        1 MOL1        -0.1855
     139    H8      18.524501   19.918291   23.112755 H          1 MOL1         0.0755
     140    H9      19.990833   20.471141   23.905938 H          1 MOL1         0.0755
     141    C6      19.611954   18.358366   24.179317 C.3        1 MOL1        -0.1958
     142    H10     19.179616   17.508980   23.639432 H          1 MOL1         0.0753
     143    H11     20.651356   18.101359   24.411961 H          1 MOL1         0.0753
     144    C7      18.861693   18.503909   25.498858 C.2        1 MOL1         0.6174
     145    O1      17.659233   18.315130   25.492141 O.co2      1 MOL1        -0.6695
     146    O2      19.491891   18.820255   26.488404 O.co2      1 MOL1        -0.6695
@<TRIPOS>BOND
    1     1     2    1
    2     1     3    1
    3     1     4    1
    4     4     5    1
    5     4     6    1
    6     6     7    1
    7     4     8    1
    8     8     9    1
    9     8    10    1
   10    10    11    1
   11     8    12    1
   12    12    13    1
   13    12    14    1
   14    14    15    1
   15     1    16    1
   16    14    16    1
   17    14    17    1
   18    17    18    1
   19    17    19    1
   20    17    20    1
   21    20    21    1
   22    22    23    1
   23    22    24    1
   24    22    25    1
   25    25    26    1
   26    25    27    1
   27    27    28    1
   28    25    29    1
   29    29    30    1
   30    29    31    1
   31    31    32    1
   32     3    33    1
   33    29    33    1
   34    33    34    1
   35    33    35    1
   36    35    36    1
   37    22    37    1
   38    35    37    1
   39    35    38    1
   40    38    39    1
   41    38    40    1
   42    38    41    1
   43    41    42    1
   44    43    44    1
   45    43    45    1
   46    43    46    1
   47    46    47    1
   48    46    48    1
   49    48    49    1
   50    46    50    1
   51    50    51    1
   52    50    52    1
   53    52    53    1
   54    24    54    1
   55    50    54    1
   56    54    55    1
   57    54    56    1
   58    56    57    1
   59    43    58    1
   60    56    58    1
   61    56    59    1
   62    59    60    1
   63    59    61    1
   64    59    62    1
   65    62    63    1
   66    64    65    1
   67    64    66    1
   68    64    67    1
   69    67    68    1
   70    67    69    1
   71    69    70    1
   72    67    71    1
   73    71    72    1
   74    71    73    1
   75    73    74    1
   76    45    75    1
   77    71    75    1
   78    75    76    1
   79    75    77    1
   80    77    78    1
   81    64    79    1
   82    77    79    1
   83    77    80    1
   84    80    81    1
   85    80    82    1
   86    80    83    1
   87    83    84    1
   88    85    86    1
   89    85    87    1
   90    85    88    1
   91    88    89    1
   92    88    90    1
   93    90    91    1
   94    88    92    1
   95    92    93    1
   96    92    94    1
   97    94    95    1
   98    66    96    1
   99    92    96    1
  100    96    97    1
  101    96    98    1
  102    98    99    1
  103    85   100    1
  104    98   100    1
  105    98   101    1
  106   101   102    1
  107   101   103    1
  108   101   104    1
  109   104   105    1
  110   106   107    1
  111    12   108    1
  112   106   108    1
  113   106   109    1
  114   109   110    1
  115   109   111    1
  116   111   112    1
  117   109   113    1
  118   113   114    1
  119   113   115    1
  120   115   116    1
  121    87   117    1
  122   113   117    1
  123   117   118    1
  124   117   119    1
  125   119   120    1
  126   106   121    1
  127   119   121    1
  128   119   122    1
  129   122   123    1
  130   122   124    1
  131   122   125    1
  132   125   126    1
  133   127   128    1
  134   127   129    1
  135   127   130    2
  136   130   131    1
  137   130   132    1
  138   132   133    1
  139   132   134    1
  140   132   135    1
  141   135   136    1
  142   135   137    1
  143   135   138    1
  144   138   139    1
  145   138   140    1
  146   138   141    1
  147   141   142    1
  148   141   143    1
  149   141   144    1
  150   144   145    1
  151   144   146    2
@<TRIPOS>SUBSTRUCTURE
       1 MOL1            1 RESIDUE      1      MOL     
       2 MOL1          146 RESIDUE      1      MOL     
@<SCITEGIC>MOL_PROPERTY
VM2 Rank
SciTegic.value.IntegerValue
4

@<SCITEGIC>MOL_PROPERTY
Conf_Id
SciTegic.value.IntegerValue
24564

@<SCITEGIC>MOL_PROPERTY
Probability
SciTegic.value.DoubleValue
2.35

@<SCITEGIC>MOL_PROPERTY
Sum Probability
SciTegic.value.DoubleValue
16.01

@<SCITEGIC>MOL_PROPERTY
Delta G
SciTegic.value.DoubleValue
0.696

@<SCITEGIC>MOL_PROPERTY
G
SciTegic.value.DoubleValue
492.758

@<SCITEGIC>MOL_PROPERTY
E
SciTegic.value.DoubleValue
305.557

@<SCITEGIC>MOL_PROPERTY
-TS
SciTegic.value.DoubleValue
187.201

@<SCITEGIC>MOL_PROPERTY
U+W
SciTegic.value.DoubleValue
176.786

@<SCITEGIC>MOL_PROPERTY
U
SciTegic.value.DoubleValue
250.476

@<SCITEGIC>MOL_PROPERTY
W
SciTegic.value.DoubleValue
-73.690

@<SCITEGIC>MOL_PROPERTY
W(PB)
SciTegic.value.DoubleValue
-79.834

@<SCITEGIC>MOL_PROPERTY
W(SA)
SciTegic.value.DoubleValue
6.144

@<SCITEGIC>MOL_PROPERTY
Valence
SciTegic.value.DoubleValue
152.551

@<SCITEGIC>MOL_PROPERTY
Coulomb
SciTegic.value.DoubleValue
124.038

@<SCITEGIC>MOL_PROPERTY
VdW
SciTegic.value.DoubleValue
-26.113

@<SCITEGIC>MOL_PROPERTY
VdW6
SciTegic.value.DoubleValue
-180.910

@<SCITEGIC>MOL_PROPERTY
VdW12
SciTegic.value.DoubleValue
154.798

@<SCITEGIC>MOL_PROPERTY
Bond
SciTegic.value.DoubleValue
4.490

@<SCITEGIC>MOL_PROPERTY
Angle
SciTegic.value.DoubleValue
11.562

@<SCITEGIC>MOL_PROPERTY
Pdih
SciTegic.value.DoubleValue
136.498

@<SCITEGIC>MOL_PROPERTY
Idih
SciTegic.value.DoubleValue
0.001

@<SCITEGIC>MOL_PROPERTY
Tether
SciTegic.value.DoubleValue
0.000

@<TRIPOS>MOLECULE
CD_guest-s22_vm2_single.mol2 : vm2 host+ligand conformer 5
         146         151           2
SMALL
USER_CHARGES
 
@<TRIPOS>ATOM
       1    C1      16.223029   15.088579   20.436981 C.3        1 MOL1         0.2972
       2    H1      15.183963   14.989919   20.097703 H          1 MOL1         0.0751
       3    O1      16.529467   16.445729   20.821582 O.3        1 MOL1        -0.3740
       4    C2      16.523939   14.127717   21.617091 C.3        1 MOL1         0.1003
       5    H2      16.426338   13.104015   21.233719 H          1 MOL1         0.0783
       6    O2      15.581707   14.306557   22.685164 O.3        1 MOL1        -0.5519
       7    H3      15.778854   15.185148   23.095014 H          1 MOL1         0.3769
       8    C3      17.989146   14.316568   22.093872 C.3        1 MOL1         0.1053
       9    H4      18.079329   15.321616   22.529111 H          1 MOL1         0.0783
      10    O3      18.324382   13.333081   23.079806 O.3        1 MOL1        -0.5519
      11    H5      19.096878   13.699614   23.576346 H          1 MOL1         0.3769
      12    C4      18.984173   14.211604   20.902341 C.3        1 MOL1         0.1018
      13    H6      19.117123   13.155857   20.630487 H          1 MOL1         0.0783
      14    C5      18.528006   14.986946   19.636208 C.3        1 MOL1         0.1043
      15    H7      18.690777   16.060594   19.794921 H          1 MOL1         0.0783
      16    O4      17.126957   14.724287   19.373640 O.3        1 MOL1        -0.3740
      17    C6      19.327335   14.559279   18.387762 C.3        1 MOL1         0.0138
      18    H8      19.127538   13.500544   18.175239 H          1 MOL1         0.0794
      19    H9      20.401261   14.662514   18.592653 H          1 MOL1         0.0794
      20    O5      18.963836   15.371350   17.270220 O.3        1 MOL1        -0.5486
      21    H10     17.981018   15.376524   17.246964 H          1 MOL1         0.3769
      22    C7      14.939921   20.085018   21.874361 C.3        1 MOL1         0.2972
      23    H11     14.322393   20.939921   22.176815 H          1 MOL1         0.0751
      24    O6      16.228436   20.507408   21.377841 O.3        1 MOL1        -0.3740
      25    C8      15.164966   19.137398   23.078000 C.3        1 MOL1         0.1003
      26    H12     14.181655   18.764997   23.393063 H          1 MOL1         0.0783
      27    O7      15.760179   19.870008   24.163493 O.3        1 MOL1        -0.5519
      28    H13     16.305669   19.239265   24.701158 H          1 MOL1         0.3769
      29    C9      16.020084   17.913551   22.655071 C.3        1 MOL1         0.1053
      30    H14     17.037189   18.262064   22.436410 H          1 MOL1         0.0783
      31    O8      16.051278   16.948775   23.714681 O.3        1 MOL1        -0.5519
      32    H15     16.621819   17.327514   24.433125 H          1 MOL1         0.3769
      33    C10     15.459109   17.235622   21.374718 C.3        1 MOL1         0.1018
      34    H16     14.594479   16.619594   21.654867 H          1 MOL1         0.0783
      35    C11     15.047927   18.247955   20.269674 C.3        1 MOL1         0.1043
      36    H17     15.966520   18.652898   19.826385 H          1 MOL1         0.0783
      37    O9      14.276986   19.332536   20.839212 O.3        1 MOL1        -0.3740
      38    C12     14.229773   17.615330   19.118380 C.3        1 MOL1         0.0138
      39    H18     14.899953   16.978814   18.524991 H          1 MOL1         0.0794
      40    H19     13.876133   18.419410   18.459046 H          1 MOL1         0.0794
      41    O10     13.123265   16.840985   19.598572 O.3        1 MOL1        -0.5486
      42    H20     12.607591   16.542233   18.817966 H          1 MOL1         0.3769
      43    C13     18.458549   24.015666   21.010670 C.3        1 MOL1         0.2972
      44    H21     18.799096   25.033207   20.780436 H          1 MOL1         0.0751
      45    O11     19.543658   23.171574   21.438035 O.3        1 MOL1        -0.3740
      46    C14     17.393500   24.036514   22.136949 C.3        1 MOL1         0.1003
      47    H22     16.551831   24.646687   21.784403 H          1 MOL1         0.0783
      48    O12     17.921897   24.607852   23.342357 O.3        1 MOL1        -0.5519
      49    H23     17.229489   24.436840   24.019948 H          1 MOL1         0.3769
      50    C15     16.864186   22.610888   22.424492 C.3        1 MOL1         0.1053
      51    H24     17.693142   22.023978   22.841434 H          1 MOL1         0.0783
      52    O13     15.801527   22.687179   23.382273 O.3        1 MOL1        -0.5519
      53    H25     15.715045   21.776556   23.760790 H          1 MOL1         0.3769
      54    C16     16.389168   21.914993   21.118013 C.3        1 MOL1         0.1018
      55    H26     15.449987   22.366900   20.772419 H          1 MOL1         0.0783
      56    C17     17.450577   22.031988   19.991986 C.3        1 MOL1         0.1043
      57    H27     18.314117   21.412134   20.266551 H          1 MOL1         0.0783
      58    O14     17.858994   23.414282   19.844342 O.3        1 MOL1        -0.3740
      59    C18     16.938832   21.549400   18.616708 C.3        1 MOL1         0.0138
      60    H28     16.646314   20.494503   18.691093 H          1 MOL1         0.0794
      61    H29     17.763356   21.610057   17.893927 H          1 MOL1         0.0794
      62    O15     15.831770   22.339703   18.173291 O.3        1 MOL1        -0.5486
      63    H30     16.132646   23.274599   18.215808 H          1 MOL1         0.3769
      64    C19     23.641162   22.898335   21.668022 C.3        1 MOL1         0.2972
      65    H31     24.726349   23.054243   21.712222 H          1 MOL1         0.0751
      66    O16     23.301552   21.499479   21.590457 O.3        1 MOL1        -0.3740
      67    C20     22.967065   23.503598   22.923708 C.3        1 MOL1         0.1003
      68    H32     23.167537   24.582892   22.916573 H          1 MOL1         0.0783
      69    O17     23.497353   22.933656   24.128198 O.3        1 MOL1        -0.5519
      70    H33     22.885363   23.238153   24.835659 H          1 MOL1         0.3769
      71    C21     21.435796   23.303773   22.872545 C.3        1 MOL1         0.1053
      72    H34     21.230081   22.230459   22.974183 H          1 MOL1         0.0783
      73    O18     20.820104   24.022819   23.948189 O.3        1 MOL1        -0.5519
      74    H35     19.850353   24.042929   23.755077 H          1 MOL1         0.3769
      75    C22     20.841146   23.785601   21.526593 C.3        1 MOL1         0.1018
      76    H36     20.778854   24.881723   21.548062 H          1 MOL1         0.0783
      77    C23     21.664893   23.324264   20.290579 C.3        1 MOL1         0.1043
      78    H37     21.488757   22.251176   20.139266 H          1 MOL1         0.0783
      79    O19     23.077790   23.559346   20.515650 O.3        1 MOL1        -0.3740
      80    C24     21.274048   24.050800   18.984657 C.3        1 MOL1         0.0138
      81    H38     20.233179   23.808339   18.734596 H          1 MOL1         0.0794
      82    H39     21.902230   23.669870   18.168336 H          1 MOL1         0.0794
      83    O20     21.434639   25.466469   19.114620 O.3        1 MOL1        -0.5486
      84    H40     22.371902   25.612821   19.372824 H          1 MOL1         0.3769
      85    C25     24.912820   17.700617   21.151537 C.3        1 MOL1         0.2972
      86    H41     25.556503   16.837956   20.936670 H          1 MOL1         0.0751
      87    O21     23.559967   17.292609   21.433225 O.3        1 MOL1        -0.3740
      88    C26     25.462037   18.514588   22.353654 C.3        1 MOL1         0.1003
      89    H42     26.469981   18.854803   22.082643 H          1 MOL1         0.0783
      90    O22     25.539131   17.720241   23.544379 O.3        1 MOL1        -0.5519
      91    H43     25.796090   18.354793   24.250936 H          1 MOL1         0.3769
      92    C27     24.594383   19.767058   22.619825 C.3        1 MOL1         0.1053
      93    H44     23.609377   19.432062   22.973426 H          1 MOL1         0.0783
      94    O23     25.220433   20.578590   23.621254 O.3        1 MOL1        -0.5519
      95    H45     24.601672   21.329430   23.803669 H          1 MOL1         0.3769
      96    C28     24.387212   20.593315   21.326333 C.3        1 MOL1         0.1018
      97    H46     25.317354   21.122224   21.079951 H          1 MOL1         0.0783
      98    C29     23.973162   19.711414   20.118560 C.3        1 MOL1         0.1043
      99    H47     22.945839   19.359407   20.277633 H          1 MOL1         0.0783
     100    O24     24.873576   18.580569   20.008777 O.3        1 MOL1        -0.3740
     101    C30     24.011803   20.470734   18.774216 C.3        1 MOL1         0.0138
     102    H48     23.322933   21.323682   18.822987 H          1 MOL1         0.0794
     103    H49     23.650074   19.801383   17.982444 H          1 MOL1         0.0794
     104    O25     25.336559   20.921869   18.476227 O.3        1 MOL1        -0.5486
     105    H50     25.911426   20.126169   18.528860 H          1 MOL1         0.3769
     106    C31     21.207990   13.927111   21.890329 C.3        1 MOL1         0.2972
     107    H51     20.795796   12.926644   22.073117 H          1 MOL1         0.0751
     108    O26     20.228105   14.810705   21.309805 O.3        1 MOL1        -0.3740
     109    C32     21.726890   14.542249   23.213445 C.3        1 MOL1         0.1003
     110    H52     22.530433   13.891185   23.581683 H          1 MOL1         0.0783
     111    O27     20.695572   14.615535   24.206684 O.3        1 MOL1        -0.5519
     112    H53     21.067736   15.202785   24.902710 H          1 MOL1         0.3769
     113    C33     22.330966   15.943090   22.970220 C.3        1 MOL1         0.1053
     114    H54     21.521181   16.624823   22.676749 H          1 MOL1         0.0783
     115    O28     22.951516   16.399995   24.177493 O.3        1 MOL1        -0.5519
     116    H55     23.665720   17.025592   23.907195 H          1 MOL1         0.3769
     117    C34     23.375751   15.920392   21.828170 C.3        1 MOL1         0.1018
     118    H56     24.304557   15.478226   22.213494 H          1 MOL1         0.0783
     119    C35     22.886321   15.132046   20.578714 C.3        1 MOL1         0.1043
     120    H57     22.115506   15.730803   20.076249 H          1 MOL1         0.0783
     121    O29     22.326481   13.855413   20.980405 O.3        1 MOL1        -0.3740
     122    C36     24.000442   14.850661   19.545993 C.3        1 MOL1         0.0138
     123    H58     24.350864   15.803387   19.127508 H          1 MOL1         0.0794
     124    H59     23.574306   14.269507   18.717272 H          1 MOL1         0.0794
     125    O30     25.090776   14.140741   20.140751 O.3        1 MOL1        -0.5486
     126    H60     24.710751   13.314180   20.513385 H          1 MOL1         0.3769
     127    C1      20.481095   19.578190   18.765322 C.2        1 MOL1        -0.2535
     128    H1      21.016568   19.476371   17.823590 H          1 MOL1         0.0845
     129    H2      20.052528   20.550506   18.995832 H          1 MOL1         0.0845
     130    C2      20.356862   18.544331   19.602451 C.2        1 MOL1        -0.1324
     131    H3      20.794126   17.579691   19.349325 H          1 MOL1         0.0833
     132    C3      19.622916   18.599010   20.924697 C.3        1 MOL1        -0.1813
     133    H4      19.544947   17.585637   21.336118 H          1 MOL1         0.0753
     134    H5      18.593960   18.942592   20.758236 H          1 MOL1         0.0753
     135    C4      20.328375   19.520640   21.944846 C.3        1 MOL1        -0.1855
     136    H6      21.349370   19.161336   22.126707 H          1 MOL1         0.0755
     137    H7      20.424586   20.521662   21.507592 H          1 MOL1         0.0755
     138    C5      19.570207   19.639416   23.288026 C.3        1 MOL1        -0.1855
     139    H8      18.526012   19.917729   23.100049 H          1 MOL1         0.0755
     140    H9      20.006914   20.459186   23.873575 H          1 MOL1         0.0755
     141    C6      19.619555   18.347859   24.144722 C.3        1 MOL1        -0.1958
     142    H10     19.175266   17.502769   23.607748 H          1 MOL1         0.0753
     143    H11     20.660583   18.084477   24.362692 H          1 MOL1         0.0753
     144    C7      18.887627   18.493201   25.474585 C.2        1 MOL1         0.6174
     145    O1      17.684682   18.307566   25.483914 O.co2      1 MOL1        -0.6695
     146    O2      19.531780   18.807546   26.455747 O.co2      1 MOL1        -0.6695
@<TRIPOS>BOND
    1     1     2    1
    2     1     3    1
    3     1     4    1
    4     4     5    1
    5     4     6    1
    6     6     7    1
    7     4     8    1
    8     8     9    1
    9     8    10    1
   10    10    11    1
   11     8    12    1
   12    12    13    1
   13    12    14    1
   14    14    15    1
   15     1    16    1
   16    14    16    1
   17    14    17    1
   18    17    18    1
   19    17    19    1
   20    17    20    1
   21    20    21    1
   22    22    23    1
   23    22    24    1
   24    22    25    1
   25    25    26    1
   26    25    27    1
   27    27    28    1
   28    25    29    1
   29    29    30    1
   30    29    31    1
   31    31    32    1
   32     3    33    1
   33    29    33    1
   34    33    34    1
   35    33    35    1
   36    35    36    1
   37    22    37    1
   38    35    37    1
   39    35    38    1
   40    38    39    1
   41    38    40    1
   42    38    41    1
   43    41    42    1
   44    43    44    1
   45    43    45    1
   46    43    46    1
   47    46    47    1
   48    46    48    1
   49    48    49    1
   50    46    50    1
   51    50    51    1
   52    50    52    1
   53    52    53    1
   54    24    54    1
   55    50    54    1
   56    54    55    1
   57    54    56    1
   58    56    57    1
   59    43    58    1
   60    56    58    1
   61    56    59    1
   62    59    60    1
   63    59    61    1
   64    59    62    1
   65    62    63    1
   66    64    65    1
   67    64    66    1
   68    64    67    1
   69    67    68    1
   70    67    69    1
   71    69    70    1
   72    67    71    1
   73    71    72    1
   74    71    73    1
   75    73    74    1
   76    45    75    1
   77    71    75    1
   78    75    76    1
   79    75    77    1
   80    77    78    1
   81    64    79    1
   82    77    79    1
   83    77    80    1
   84    80    81    1
   85    80    82    1
   86    80    83    1
   87    83    84    1
   88    85    86    1
   89    85    87    1
   90    85    88    1
   91    88    89    1
   92    88    90    1
   93    90    91    1
   94    88    92    1
   95    92    93    1
   96    92    94    1
   97    94    95    1
   98    66    96    1
   99    92    96    1
  100    96    97    1
  101    96    98    1
  102    98    99    1
  103    85   100    1
  104    98   100    1
  105    98   101    1
  106   101   102    1
  107   101   103    1
  108   101   104    1
  109   104   105    1
  110   106   107    1
  111    12   108    1
  112   106   108    1
  113   106   109    1
  114   109   110    1
  115   109   111    1
  116   111   112    1
  117   109   113    1
  118   113   114    1
  119   113   115    1
  120   115   116    1
  121    87   117    1
  122   113   117    1
  123   117   118    1
  124   117   119    1
  125   119   120    1
  126   106   121    1
  127   119   121    1
  128   119   122    1
  129   122   123    1
  130   122   124    1
  131   122   125    1
  132   125   126    1
  133   127   128    1
  134   127   129    1
  135   127   130    2
  136   130   131    1
  137   130   132    1
  138   132   133    1
  139   132   134    1
  140   132   135    1
  141   135   136    1
  142   135   137    1
  143   135   138    1
  144   138   139    1
  145   138   140    1
  146   138   141    1
  147   141   142    1
  148   141   143    1
  149   141   144    1
  150   144   145    1
  151   144   146    2
@<TRIPOS>SUBSTRUCTURE
       1 MOL1            1 RESIDUE      1      MOL     
       2 MOL1          146 RESIDUE      1      MOL     
@<SCITEGIC>MOL_PROPERTY
VM2 Rank
SciTegic.value.IntegerValue
5

@<SCITEGIC>MOL_PROPERTY
Conf_Id
SciTegic.value.IntegerValue
26138

@<SCITEGIC>MOL_PROPERTY
Probability
SciTegic.value.DoubleValue
2.28

@<SCITEGIC>MOL_PROPERTY
Sum Probability
SciTegic.value.DoubleValue
18.30

@<SCITEGIC>MOL_PROPERTY
Delta G
SciTegic.value.DoubleValue
0.713

@<SCITEGIC>MOL_PROPERTY
G
SciTegic.value.DoubleValue
492.776

@<SCITEGIC>MOL_PROPERTY
E
SciTegic.value.DoubleValue
305.495

@<SCITEGIC>MOL_PROPERTY
-TS
SciTegic.value.DoubleValue
187.280

@<SCITEGIC>MOL_PROPERTY
U+W
SciTegic.value.DoubleValue
176.724

@<SCITEGIC>MOL_PROPERTY
U
SciTegic.value.DoubleValue
251.875

@<SCITEGIC>MOL_PROPERTY
W
SciTegic.value.DoubleValue
-75.150

@<SCITEGIC>MOL_PROPERTY
W(PB)
SciTegic.value.DoubleValue
-81.283

@<SCITEGIC>MOL_PROPERTY
W(SA)
SciTegic.value.DoubleValue
6.132

@<SCITEGIC>MOL_PROPERTY
Valence
SciTegic.value.DoubleValue
151.696

@<SCITEGIC>MOL_PROPERTY
Coulomb
SciTegic.value.DoubleValue
126.130

@<SCITEGIC>MOL_PROPERTY
VdW
SciTegic.value.DoubleValue
-25.951

@<SCITEGIC>MOL_PROPERTY
VdW6
SciTegic.value.DoubleValue
-181.298

@<SCITEGIC>MOL_PROPERTY
VdW12
SciTegic.value.DoubleValue
155.346

@<SCITEGIC>MOL_PROPERTY
Bond
SciTegic.value.DoubleValue
4.505

@<SCITEGIC>MOL_PROPERTY
Angle
SciTegic.value.DoubleValue
11.728

@<SCITEGIC>MOL_PROPERTY
Pdih
SciTegic.value.DoubleValue
135.461

@<SCITEGIC>MOL_PROPERTY
Idih
SciTegic.value.DoubleValue
0.001

@<SCITEGIC>MOL_PROPERTY
Tether
SciTegic.value.DoubleValue
0.000

@<TRIPOS>MOLECULE
CD_guest-s22_vm2_single.mol2 : vm2 host+ligand conformer 6
         146         151           2
SMALL
USER_CHARGES
 
@<TRIPOS>ATOM
       1    C1      16.233886   15.039845   20.467640 C.3        1 MOL1         0.2972
       2    H1      15.198089   14.928430   20.123885 H          1 MOL1         0.0751
       3    O1      16.524814   16.403224   20.846647 O.3        1 MOL1        -0.3740
       4    C2      16.538150   14.080038   21.646899 C.3        1 MOL1         0.1003
       5    H2      16.459957   13.056528   21.258455 H          1 MOL1         0.0783
       6    O2      15.579890   14.238707   22.703229 O.3        1 MOL1        -0.5519
       7    H3      15.777428   15.104809   23.138354 H          1 MOL1         0.3769
       8    C3      17.997018   14.288933   22.134310 C.3        1 MOL1         0.1053
       9    H4      18.073964   15.297853   22.562884 H          1 MOL1         0.0783
      10    O3      18.337985   13.316332   23.128961 O.3        1 MOL1        -0.5519
      11    H5      19.110182   13.690188   23.620573 H          1 MOL1         0.3769
      12    C4      18.998117   14.186310   20.947640 C.3        1 MOL1         0.1018
      13    H6      19.138237   13.130514   20.679525 H          1 MOL1         0.0783
      14    C5      18.542856   14.955199   19.676950 C.3        1 MOL1         0.1043
      15    H7      18.697891   16.030394   19.833195 H          1 MOL1         0.0783
      16    O4      17.144615   14.682502   19.408350 O.3        1 MOL1        -0.3740
      17    C6      19.350475   14.528623   18.433442 C.3        1 MOL1         0.0138
      18    H8      19.154373   13.469273   18.220552 H          1 MOL1         0.0794
      19    H9      20.422938   14.634392   18.644284 H          1 MOL1         0.0794
      20    O5      18.991839   15.339012   17.313153 O.3        1 MOL1        -0.5486
      21    H10     18.009025   15.348606   17.288002 H          1 MOL1         0.3769
      22    C7      14.947017   20.030012   21.986401 C.3        1 MOL1         0.2972
      23    H11     14.327637   20.876516   22.308433 H          1 MOL1         0.0751
      24    O6      16.234598   20.463849   21.502858 O.3        1 MOL1        -0.3740
      25    C8      15.175513   19.058117   23.167485 C.3        1 MOL1         0.1003
      26    H12     14.192800   18.684793   23.483081 H          1 MOL1         0.0783
      27    O7      15.780834   19.771239   24.260448 O.3        1 MOL1        -0.5519
      28    H13     16.329308   19.129985   24.782172 H          1 MOL1         0.3769
      29    C9      16.022228   17.838200   22.713853 C.3        1 MOL1         0.1053
      30    H14     17.042202   18.185617   22.505684 H          1 MOL1         0.0783
      31    O8      16.045738   16.853384   23.753841 O.3        1 MOL1        -0.5519
      32    H15     16.625163   17.212188   24.475905 H          1 MOL1         0.3769
      33    C10     15.461109   17.194010   21.412865 C.3        1 MOL1         0.1018
      34    H16     14.581932   16.585305   21.662800 H          1 MOL1         0.0783
      35    C11     15.080874   18.243806   20.333461 C.3        1 MOL1         0.1043
      36    H17     16.007049   18.652344   19.909868 H          1 MOL1         0.0783
      37    O9      14.290681   19.297039   20.934280 O.3        1 MOL1        -0.3740
      38    C12     14.250468   17.653772   19.176020 C.3        1 MOL1         0.0138
      39    H18     13.297746   17.274156   19.568839 H          1 MOL1         0.0794
      40    H19     14.792966   16.810984   18.728234 H          1 MOL1         0.0794
      41    O10     14.022597   18.662442   18.189218 O.3        1 MOL1        -0.5486
      42    H20     13.740878   19.464656   18.685258 H          1 MOL1         0.3769
      43    C13     18.401304   23.988883   21.030034 C.3        1 MOL1         0.2972
      44    H21     18.726395   25.007635   20.783659 H          1 MOL1         0.0751
      45    O11     19.505117   23.155854   21.432784 O.3        1 MOL1        -0.3740
      46    C14     17.368918   24.006895   22.186967 C.3        1 MOL1         0.1003
      47    H22     16.505976   24.597014   21.852071 H          1 MOL1         0.0783
      48    O12     17.921250   24.600927   23.370352 O.3        1 MOL1        -0.5519
      49    H23     17.253975   24.420463   24.070460 H          1 MOL1         0.3769
      50    C15     16.877317   22.574512   22.503599 C.3        1 MOL1         0.1053
      51    H24     17.732749   22.004060   22.888679 H          1 MOL1         0.0783
      52    O13     15.851286   22.628504   23.502589 O.3        1 MOL1        -0.5519
      53    H25     15.775458   21.708951   23.861296 H          1 MOL1         0.3769
      54    C16     16.365732   21.867738   21.218862 C.3        1 MOL1         0.1018
      55    H26     15.408968   22.307236   20.907290 H          1 MOL1         0.0783
      56    C17     17.381911   21.989261   20.052491 C.3        1 MOL1         0.1043
      57    H27     18.264247   21.387935   20.306524 H          1 MOL1         0.0783
      58    O14     17.773998   23.374067   19.885109 O.3        1 MOL1        -0.3740
      59    C18     16.839628   21.464497   18.700716 C.3        1 MOL1         0.0138
      60    H28     16.772365   20.370612   18.755499 H          1 MOL1         0.0794
      61    H29     17.568006   21.704037   17.914684 H          1 MOL1         0.0794
      62    O15     15.555840   22.013367   18.374881 O.3        1 MOL1        -0.5486
      63    H30     15.270573   21.613189   17.525189 H          1 MOL1         0.3769
      64    C19     23.607183   22.899989   21.587876 C.3        1 MOL1         0.2972
      65    H31     24.692108   23.062652   21.606159 H          1 MOL1         0.0751
      66    O16     23.274281   21.497868   21.551772 O.3        1 MOL1        -0.3740
      67    C20     22.955703   23.531810   22.842385 C.3        1 MOL1         0.1003
      68    H32     23.152322   24.611235   22.806256 H          1 MOL1         0.0783
      69    O17     23.511787   22.991767   24.049034 O.3        1 MOL1        -0.5519
      70    H33     22.913789   23.312377   24.761339 H          1 MOL1         0.3769
      71    C21     21.424280   23.326725   22.827086 C.3        1 MOL1         0.1053
      72    H34     21.222863   22.255443   22.958737 H          1 MOL1         0.0783
      73    O18     20.830145   24.069967   23.898352 O.3        1 MOL1        -0.5519
      74    H35     19.855633   24.078860   23.729503 H          1 MOL1         0.3769
      75    C22     20.801432   23.775675   21.482188 C.3        1 MOL1         0.1018
      76    H36     20.736306   24.871813   21.477441 H          1 MOL1         0.0783
      77    C23     21.600926   23.285210   20.241776 C.3        1 MOL1         0.1043
      78    H37     21.425337   22.208039   20.121145 H          1 MOL1         0.0783
      79    O19     23.017304   23.530175   20.431441 O.3        1 MOL1        -0.3740
      80    C24     21.179536   23.977919   18.927069 C.3        1 MOL1         0.0138
      81    H38     20.131934   23.732385   18.709743 H          1 MOL1         0.0794
      82    H39     21.786280   23.573517   18.105851 H          1 MOL1         0.0794
      83    O20     21.347154   25.395983   19.015737 O.3        1 MOL1        -0.5486
      84    H40     22.290014   25.545457   19.250823 H          1 MOL1         0.3769
      85    C25     24.900529   17.699337   21.151209 C.3        1 MOL1         0.2972
      86    H41     25.548630   16.838450   20.942585 H          1 MOL1         0.0751
      87    O21     23.553181   17.285601   21.449645 O.3        1 MOL1        -0.3740
      88    C26     25.453273   18.532035   22.338756 C.3        1 MOL1         0.1003
      89    H42     26.458110   18.872792   22.057117 H          1 MOL1         0.0783
      90    O22     25.540645   17.753831   23.539495 O.3        1 MOL1        -0.5519
      91    H43     25.798004   18.398979   24.236215 H          1 MOL1         0.3769
      92    C27     24.581987   19.784338   22.593901 C.3        1 MOL1         0.1053
      93    H44     23.601455   19.450121   22.960342 H          1 MOL1         0.0783
      94    O23     25.212729   20.612910   23.578282 O.3        1 MOL1        -0.5519
      95    H45     24.597026   21.369328   23.747571 H          1 MOL1         0.3769
      96    C28     24.360603   20.591368   21.290755 C.3        1 MOL1         0.1018
      97    H46     25.287074   21.119356   21.029081 H          1 MOL1         0.0783
      98    C29     23.939432   19.690481   20.099803 C.3        1 MOL1         0.1043
      99    H47     22.915999   19.334975   20.274676 H          1 MOL1         0.0783
     100    O24     24.845593   18.563613   19.997124 O.3        1 MOL1        -0.3740
     101    C30     23.959709   20.430615   18.744425 C.3        1 MOL1         0.0138
     102    H48     23.265269   21.279344   18.787666 H          1 MOL1         0.0794
     103    H49     23.595008   19.747471   17.965905 H          1 MOL1         0.0794
     104    O25     25.278350   20.886493   18.427118 O.3        1 MOL1        -0.5486
     105    H50     25.859199   20.095534   18.485090 H          1 MOL1         0.3769
     106    C31     21.221666   13.913119   21.936005 C.3        1 MOL1         0.2972
     107    H51     20.812572   12.912567   22.125223 H          1 MOL1         0.0751
     108    O26     20.236156   14.793237   21.359912 O.3        1 MOL1        -0.3740
     109    C32     21.746267   14.534043   23.253687 C.3        1 MOL1         0.1003
     110    H52     22.553556   13.886647   23.620172 H          1 MOL1         0.0783
     111    O27     20.718567   14.607232   24.250860 O.3        1 MOL1        -0.5519
     112    H53     21.091870   15.196365   24.944545 H          1 MOL1         0.3769
     113    C33     22.344571   15.935899   23.001432 C.3        1 MOL1         0.1053
     114    H54     21.530480   16.613997   22.711609 H          1 MOL1         0.0783
     115    O28     22.972943   16.399259   24.202203 O.3        1 MOL1        -0.5519
     116    H55     23.676868   17.033243   23.924386 H          1 MOL1         0.3769
     117    C34     23.380897   15.913871   21.851634 C.3        1 MOL1         0.1018
     118    H56     24.315249   15.479485   22.232364 H          1 MOL1         0.0783
     119    C35     22.887870   15.117169   20.608821 C.3        1 MOL1         0.1043
     120    H57     22.112241   15.710477   20.107459 H          1 MOL1         0.0783
     121    O29     22.334637   13.840659   21.019555 O.3        1 MOL1        -0.3740
     122    C36     23.997316   14.834528   19.571412 C.3        1 MOL1         0.0138
     123    H58     24.341618   15.786242   19.145643 H          1 MOL1         0.0794
     124    H59     23.568864   14.247124   18.748307 H          1 MOL1         0.0794
     125    O30     25.093741   14.132171   20.163916 O.3        1 MOL1        -0.5486
     126    H60     24.719147   13.306054   20.542979 H          1 MOL1         0.3769
     127    C1      20.410345   19.546838   18.775293 C.2        1 MOL1        -0.2535
     128    H1      20.949780   19.449969   17.835307 H          1 MOL1         0.0845
     129    H2      19.929734   20.500013   18.981679 H          1 MOL1         0.0845
     130    C2      20.343753   18.530189   19.639459 C.2        1 MOL1        -0.1324
     131    H3      20.832737   17.584420   19.411232 H          1 MOL1         0.0833
     132    C3      19.608138   18.580374   20.960578 C.3        1 MOL1        -0.1813
     133    H4      19.528310   17.565866   21.368608 H          1 MOL1         0.0753
     134    H5      18.580058   18.927487   20.795709 H          1 MOL1         0.0753
     135    C4      20.315320   19.500047   21.980918 C.3        1 MOL1        -0.1855
     136    H6      21.339700   19.145978   22.153723 H          1 MOL1         0.0755
     137    H7      20.402255   20.503679   21.547356 H          1 MOL1         0.0755
     138    C5      19.565788   19.606682   23.329933 C.3        1 MOL1        -0.1855
     139    H8      18.516721   19.871955   23.150319 H          1 MOL1         0.0755
     140    H9      19.996902   20.431089   23.913519 H          1 MOL1         0.0755
     141    C6      19.638035   18.312975   24.182165 C.3        1 MOL1        -0.1958
     142    H10     19.212872   17.461126   23.640415 H          1 MOL1         0.0753
     143    H11     20.683394   18.069886   24.402610 H          1 MOL1         0.0753
     144    C7      18.899644   18.436409   25.510510 C.2        1 MOL1         0.6174
     145    O1      17.710618   18.176201   25.525673 O.co2      1 MOL1        -0.6695
     146    O2      19.523849   18.808186   26.484450 O.co2      1 MOL1        -0.6695
@<TRIPOS>BOND
    1     1     2    1
    2     1     3    1
    3     1     4    1
    4     4     5    1
    5     4     6    1
    6     6     7    1
    7     4     8    1
    8     8     9    1
    9     8    10    1
   10    10    11    1
   11     8    12    1
   12    12    13    1
   13    12    14    1
   14    14    15    1
   15     1    16    1
   16    14    16    1
   17    14    17    1
   18    17    18    1
   19    17    19    1
   20    17    20    1
   21    20    21    1
   22    22    23    1
   23    22    24    1
   24    22    25    1
   25    25    26    1
   26    25    27    1
   27    27    28    1
   28    25    29    1
   29    29    30    1
   30    29    31    1
   31    31    32    1
   32     3    33    1
   33    29    33    1
   34    33    34    1
   35    33    35    1
   36    35    36    1
   37    22    37    1
   38    35    37    1
   39    35    38    1
   40    38    39    1
   41    38    40    1
   42    38    41    1
   43    41    42    1
   44    43    44    1
   45    43    45    1
   46    43    46    1
   47    46    47    1
   48    46    48    1
   49    48    49    1
   50    46    50    1
   51    50    51    1
   52    50    52    1
   53    52    53    1
   54    24    54    1
   55    50    54    1
   56    54    55    1
   57    54    56    1
   58    56    57    1
   59    43    58    1
   60    56    58    1
   61    56    59    1
   62    59    60    1
   63    59    61    1
   64    59    62    1
   65    62    63    1
   66    64    65    1
   67    64    66    1
   68    64    67    1
   69    67    68    1
   70    67    69    1
   71    69    70    1
   72    67    71    1
   73    71    72    1
   74    71    73    1
   75    73    74    1
   76    45    75    1
   77    71    75    1
   78    75    76    1
   79    75    77    1
   80    77    78    1
   81    64    79    1
   82    77    79    1
   83    77    80    1
   84    80    81    1
   85    80    82    1
   86    80    83    1
   87    83    84    1
   88    85    86    1
   89    85    87    1
   90    85    88    1
   91    88    89    1
   92    88    90    1
   93    90    91    1
   94    88    92    1
   95    92    93    1
   96    92    94    1
   97    94    95    1
   98    66    96    1
   99    92    96    1
  100    96    97    1
  101    96    98    1
  102    98    99    1
  103    85   100    1
  104    98   100    1
  105    98   101    1
  106   101   102    1
  107   101   103    1
  108   101   104    1
  109   104   105    1
  110   106   107    1
  111    12   108    1
  112   106   108    1
  113   106   109    1
  114   109   110    1
  115   109   111    1
  116   111   112    1
  117   109   113    1
  118   113   114    1
  119   113   115    1
  120   115   116    1
  121    87   117    1
  122   113   117    1
  123   117   118    1
  124   117   119    1
  125   119   120    1
  126   106   121    1
  127   119   121    1
  128   119   122    1
  129   122   123    1
  130   122   124    1
  131   122   125    1
  132   125   126    1
  133   127   128    1
  134   127   129    1
  135   127   130    2
  136   130   131    1
  137   130   132    1
  138   132   133    1
  139   132   134    1
  140   132   135    1
  141   135   136    1
  142   135   137    1
  143   135   138    1
  144   138   139    1
  145   138   140    1
  146   138   141    1
  147   141   142    1
  148   141   143    1
  149   141   144    1
  150   144   145    1
  151   144   146    2
@<TRIPOS>SUBSTRUCTURE
       1 MOL1            1 RESIDUE      1      MOL     
       2 MOL1          146 RESIDUE      1      MOL     
@<SCITEGIC>MOL_PROPERTY
VM2 Rank
SciTegic.value.IntegerValue
6

@<SCITEGIC>MOL_PROPERTY
Conf_Id
SciTegic.value.IntegerValue
21317

@<SCITEGIC>MOL_PROPERTY
Probability
SciTegic.value.DoubleValue
2.04

@<SCITEGIC>MOL_PROPERTY
Sum Probability
SciTegic.value.DoubleValue
20.33

@<SCITEGIC>MOL_PROPERTY
Delta G
SciTegic.value.DoubleValue
0.781

@<SCITEGIC>MOL_PROPERTY
G
SciTegic.value.DoubleValue
492.844

@<SCITEGIC>MOL_PROPERTY
E
SciTegic.value.DoubleValue
305.998

@<SCITEGIC>MOL_PROPERTY
-TS
SciTegic.value.DoubleValue
186.845

@<SCITEGIC>MOL_PROPERTY
U+W
SciTegic.value.DoubleValue
177.227

@<SCITEGIC>MOL_PROPERTY
U
SciTegic.value.DoubleValue
250.574

@<SCITEGIC>MOL_PROPERTY
W
SciTegic.value.DoubleValue
-73.346

@<SCITEGIC>MOL_PROPERTY
W(PB)
SciTegic.value.DoubleValue
-79.419

@<SCITEGIC>MOL_PROPERTY
W(SA)
SciTegic.value.DoubleValue
6.073

@<SCITEGIC>MOL_PROPERTY
Valence
SciTegic.value.DoubleValue
152.320

@<SCITEGIC>MOL_PROPERTY
Coulomb
SciTegic.value.DoubleValue
124.877

@<SCITEGIC>MOL_PROPERTY
VdW
SciTegic.value.DoubleValue
-26.623

@<SCITEGIC>MOL_PROPERTY
VdW6
SciTegic.value.DoubleValue
-181.234

@<SCITEGIC>MOL_PROPERTY
VdW12
SciTegic.value.DoubleValue
154.611

@<SCITEGIC>MOL_PROPERTY
Bond
SciTegic.value.DoubleValue
4.478

@<SCITEGIC>MOL_PROPERTY
Angle
SciTegic.value.DoubleValue
11.734

@<SCITEGIC>MOL_PROPERTY
Pdih
SciTegic.value.DoubleValue
136.107

@<SCITEGIC>MOL_PROPERTY
Idih
SciTegic.value.DoubleValue
0.001

@<SCITEGIC>MOL_PROPERTY
Tether
SciTegic.value.DoubleValue
0.000

@<TRIPOS>MOLECULE
CD_guest-s22_vm2_single.mol2 : vm2 host+ligand conformer 7
         146         151           2
SMALL
USER_CHARGES
 
@<TRIPOS>ATOM
       1    C1      16.223943   15.087710   20.429967 C.3        1 MOL1         0.2972
       2    H1      15.185453   14.987346   20.089109 H          1 MOL1         0.0751
       3    O1      16.528255   16.446261   20.812668 O.3        1 MOL1        -0.3740
       4    C2      16.523891   14.127918   21.611122 C.3        1 MOL1         0.1003
       5    H2      16.428880   13.103941   21.227801 H          1 MOL1         0.0783
       6    O2      15.578491   14.305246   22.676592 O.3        1 MOL1        -0.5519
       7    H3      15.777586   15.180940   23.091580 H          1 MOL1         0.3769
       8    C3      17.987889   14.319265   22.090590 C.3        1 MOL1         0.1053
       9    H4      18.076195   15.325031   22.524524 H          1 MOL1         0.0783
      10    O3      18.322778   13.337595   23.078420 O.3        1 MOL1        -0.5519
      11    H5      19.096556   13.703838   23.573208 H          1 MOL1         0.3769
      12    C4      18.984865   14.213679   20.900793 C.3        1 MOL1         0.1018
      13    H6      19.118851   13.157733   20.630205 H          1 MOL1         0.0783
      14    C5      18.530287   14.987436   19.633144 C.3        1 MOL1         0.1043
      15    H7      18.691873   16.061334   19.791202 H          1 MOL1         0.0783
      16    O4      17.129877   14.723366   19.368443 O.3        1 MOL1        -0.3740
      17    C6      19.332160   14.559387   18.386469 C.3        1 MOL1         0.0138
      18    H8      19.132719   13.500621   18.173760 H          1 MOL1         0.0794
      19    H9      20.405667   14.662549   18.593555 H          1 MOL1         0.0794
      20    O5      18.971123   15.371309   17.268019 O.3        1 MOL1        -0.5486
      21    H10     17.988374   15.375618   17.241801 H          1 MOL1         0.3769
      22    C7      14.943988   20.084264   21.872818 C.3        1 MOL1         0.2972
      23    H11     14.330169   20.941662   22.175733 H          1 MOL1         0.0751
      24    O6      16.233653   20.500500   21.374865 O.3        1 MOL1        -0.3740
      25    C8      15.168922   19.136356   23.076100 C.3        1 MOL1         0.1003
      26    H12     14.185414   18.766656   23.393571 H          1 MOL1         0.0783
      27    O7      15.767845   19.867704   24.160243 O.3        1 MOL1        -0.5519
      28    H13     16.311922   19.235415   24.697526 H          1 MOL1         0.3769
      29    C9      16.020197   17.910013   22.651349 C.3        1 MOL1         0.1053
      30    H14     17.038988   18.255311   22.435198 H          1 MOL1         0.0783
      31    O8      16.045967   16.943770   23.709401 O.3        1 MOL1        -0.5519
      32    H15     16.617710   17.319214   24.428740 H          1 MOL1         0.3769
      33    C10     15.459263   17.235668   21.368463 C.3        1 MOL1         0.1018
      34    H16     14.594301   16.618394   21.644955 H          1 MOL1         0.0783
      35    C11     15.049446   18.251654   20.266120 C.3        1 MOL1         0.1043
      36    H17     15.965762   18.654211   19.815705 H          1 MOL1         0.0783
      37    O9      14.275786   19.331206   20.840540 O.3        1 MOL1        -0.3740
      38    C12     14.212708   17.623942   19.129263 C.3        1 MOL1         0.0138
      39    H18     14.825061   16.879756   18.603104 H          1 MOL1         0.0794
      40    H19     13.958998   18.409037   18.404357 H          1 MOL1         0.0794
      41    O10     13.022569   17.013964   19.637140 O.3        1 MOL1        -0.5486
      42    H20     12.540069   17.718178   20.124897 H          1 MOL1         0.3769
      43    C13     18.466227   24.009107   20.997697 C.3        1 MOL1         0.2972
      44    H21     18.804869   25.026054   20.762152 H          1 MOL1         0.0751
      45    O11     19.551770   23.171807   21.437384 O.3        1 MOL1        -0.3740
      46    C14     17.395800   24.034200   22.118711 C.3        1 MOL1         0.1003
      47    H22     16.553735   24.639127   21.758082 H          1 MOL1         0.0783
      48    O12     17.917390   24.614700   23.322937 O.3        1 MOL1        -0.5519
      49    H23     17.223236   24.444059   23.998855 H          1 MOL1         0.3769
      50    C15     16.870367   22.608598   22.413041 C.3        1 MOL1         0.1053
      51    H24     17.700880   22.025620   22.832318 H          1 MOL1         0.0783
      52    O13     15.807920   22.685702   23.371286 O.3        1 MOL1        -0.5519
      53    H25     15.722817   21.775742   23.751633 H          1 MOL1         0.3769
      54    C16     16.398433   21.906743   21.108793 C.3        1 MOL1         0.1018
      55    H26     15.461907   22.360282   20.758322 H          1 MOL1         0.0783
      56    C17     17.464773   22.017409   19.986569 C.3        1 MOL1         0.1043
      57    H27     18.329528   21.407289   20.277538 H          1 MOL1         0.0783
      58    O14     17.876516   23.397699   19.832298 O.3        1 MOL1        -0.3740
      59    C18     16.974786   21.499757   18.613310 C.3        1 MOL1         0.0138
      60    H28     16.858127   20.410152   18.674828 H          1 MOL1         0.0794
      61    H29     17.754032   21.701101   17.866220 H          1 MOL1         0.0794
      62    O15     15.735799   22.101910   18.216298 O.3        1 MOL1        -0.5486
      63    H30     15.504761   21.751668   17.329137 H          1 MOL1         0.3769
      64    C19     23.645834   22.902607   21.679083 C.3        1 MOL1         0.2972
      65    H31     24.731102   23.056653   21.727728 H          1 MOL1         0.0751
      66    O16     23.304304   21.504560   21.594363 O.3        1 MOL1        -0.3740
      67    C20     22.968124   23.504135   22.934597 C.3        1 MOL1         0.1003
      68    H32     23.168905   24.583391   22.931638 H          1 MOL1         0.0783
      69    O17     23.494318   22.929992   24.138873 O.3        1 MOL1        -0.5519
      70    H33     22.880079   23.232119   24.845394 H          1 MOL1         0.3769
      71    C21     21.437091   23.304735   22.877583 C.3        1 MOL1         0.1053
      72    H34     21.231245   22.231043   22.975180 H          1 MOL1         0.0783
      73    O18     20.816909   24.020154   23.953101 O.3        1 MOL1        -0.5519
      74    H35     19.848282   24.041974   23.754916 H          1 MOL1         0.3769
      75    C22     20.846395   23.790407   21.531323 C.3        1 MOL1         0.1018
      76    H36     20.779666   24.886187   21.557129 H          1 MOL1         0.0783
      77    C23     21.675203   23.336387   20.295851 C.3        1 MOL1         0.1043
      78    H37     21.499162   22.264300   20.137497 H          1 MOL1         0.0783
      79    O19     23.087425   23.569285   20.527623 O.3        1 MOL1        -0.3740
      80    C24     21.290084   24.070919   18.992682 C.3        1 MOL1         0.0138
      81    H38     20.249884   23.831255   18.737043 H          1 MOL1         0.0794
      82    H39     21.920994   23.694024   18.176590 H          1 MOL1         0.0794
      83    O20     21.452060   25.485582   19.131634 O.3        1 MOL1        -0.5486
      84    H40     22.388416   25.629096   19.394729 H          1 MOL1         0.3769
      85    C25     24.913768   17.705003   21.152685 C.3        1 MOL1         0.2972
      86    H41     25.557156   16.842313   20.937038 H          1 MOL1         0.0751
      87    O21     23.560876   17.297174   21.434486 O.3        1 MOL1        -0.3740
      88    C26     25.463454   18.517888   22.355304 C.3        1 MOL1         0.1003
      89    H42     26.471453   18.858011   22.084382 H          1 MOL1         0.0783
      90    O22     25.540514   17.722553   23.545370 O.3        1 MOL1        -0.5519
      91    H43     25.797569   18.356507   24.252428 H          1 MOL1         0.3769
      92    C27     24.596207   19.770416   22.622597 C.3        1 MOL1         0.1053
      93    H44     23.611048   19.435424   22.975814 H          1 MOL1         0.0783
      94    O23     25.222504   20.580734   23.624860 O.3        1 MOL1        -0.5519
      95    H45     24.602803   21.330148   23.809907 H          1 MOL1         0.3769
      96    C28     24.389388   20.597835   21.329756 C.3        1 MOL1         0.1018
      97    H46     25.319747   21.126436   21.083515 H          1 MOL1         0.0783
      98    C29     23.974763   19.716999   20.121355 C.3        1 MOL1         0.1043
      99    H47     22.947257   19.365310   20.280097 H          1 MOL1         0.0783
     100    O24     24.874622   18.585817   20.010594 O.3        1 MOL1        -0.3740
     101    C30     24.013843   20.477361   18.777602 C.3        1 MOL1         0.0138
     102    H48     23.325749   21.330880   18.827156 H          1 MOL1         0.0794
     103    H49     23.651415   19.808943   17.985361 H          1 MOL1         0.0794
     104    O25     25.338929   20.927597   18.479735 O.3        1 MOL1        -0.5486
     105    H50     25.913145   20.131394   18.531890 H          1 MOL1         0.3769
     106    C31     21.209062   13.930132   21.887316 C.3        1 MOL1         0.2972
     107    H51     20.797923   12.929013   22.068936 H          1 MOL1         0.0751
     108    O26     20.227521   14.813982   21.310127 O.3        1 MOL1        -0.3740
     109    C32     21.729126   14.543153   23.210914 C.3        1 MOL1         0.1003
     110    H52     22.533089   13.891609   23.577376 H          1 MOL1         0.0783
     111    O27     20.698485   14.614524   24.205020 O.3        1 MOL1        -0.5519
     112    H53     21.071091   15.200475   24.901900 H          1 MOL1         0.3769
     113    C33     22.332693   15.944550   22.969568 C.3        1 MOL1         0.1053
     114    H54     21.522527   16.626566   22.677936 H          1 MOL1         0.0783
     115    O28     22.954280   16.399474   24.177053 O.3        1 MOL1        -0.5519
     116    H55     23.667937   17.025906   23.907202 H          1 MOL1         0.3769
     117    C34     23.376254   15.924127   21.826420 C.3        1 MOL1         0.1018
     118    H56     24.305216   15.480441   22.209616 H          1 MOL1         0.0783
     119    C35     22.884707   15.139020   20.575823 C.3        1 MOL1         0.1043
     120    H57     22.112754   15.738939   20.076448 H          1 MOL1         0.0783
     121    O29     22.326112   13.861151   20.975390 O.3        1 MOL1        -0.3740
     122    C36     23.996985   14.860659   19.540306 C.3        1 MOL1         0.0138
     123    H58     24.346527   15.814595   19.123843 H          1 MOL1         0.0794
     124    H59     23.569427   14.281748   18.710747 H          1 MOL1         0.0794
     125    O30     25.088473   14.149243   20.131151 O.3        1 MOL1        -0.5486
     126    H60     24.709184   13.321662   20.502265 H          1 MOL1         0.3769
     127    C1      20.488149   19.585206   18.765245 C.2        1 MOL1        -0.2535
     128    H1      21.020079   19.484408   17.821397 H          1 MOL1         0.0845
     129    H2      20.071785   20.560776   19.004254 H          1 MOL1         0.0845
     130    C2      20.353694   18.546230   19.594474 C.2        1 MOL1        -0.1324
     131    H3      20.778973   17.578649   19.332205 H          1 MOL1         0.0833
     132    C3      19.623975   18.598181   20.919317 C.3        1 MOL1        -0.1813
     133    H4      19.551027   17.584298   21.330338 H          1 MOL1         0.0753
     134    H5      18.593158   18.937596   20.756090 H          1 MOL1         0.0753
     135    C4      20.328755   19.520894   21.939169 C.3        1 MOL1        -0.1855
     136    H6      21.350338   19.163007   22.120492 H          1 MOL1         0.0755
     137    H7      20.423426   20.522339   21.502501 H          1 MOL1         0.0755
     138    C5      19.570930   19.638089   23.282755 C.3        1 MOL1        -0.1855
     139    H8      18.526357   19.915276   23.095187 H          1 MOL1         0.0755
     140    H9      20.006762   20.458154   23.868537 H          1 MOL1         0.0755
     141    C6      19.621987   18.346261   24.138984 C.3        1 MOL1        -0.1958
     142    H10     19.180068   17.500445   23.601205 H          1 MOL1         0.0753
     143    H11     20.663324   18.085076   24.358050 H          1 MOL1         0.0753
     144    C7      18.888403   18.489310   25.468178 C.2        1 MOL1         0.6174
     145    O1      19.530126   18.808858   26.449248 O.co2      1 MOL1        -0.6695
     146    O2      17.686618   18.296239   25.477192 O.co2      1 MOL1        -0.6695
@<TRIPOS>BOND
    1     1     2    1
    2     1     3    1
    3     1     4    1
    4     4     5    1
    5     4     6    1
    6     6     7    1
    7     4     8    1
    8     8     9    1
    9     8    10    1
   10    10    11    1
   11     8    12    1
   12    12    13    1
   13    12    14    1
   14    14    15    1
   15     1    16    1
   16    14    16    1
   17    14    17    1
   18    17    18    1
   19    17    19    1
   20    17    20    1
   21    20    21    1
   22    22    23    1
   23    22    24    1
   24    22    25    1
   25    25    26    1
   26    25    27    1
   27    27    28    1
   28    25    29    1
   29    29    30    1
   30    29    31    1
   31    31    32    1
   32     3    33    1
   33    29    33    1
   34    33    34    1
   35    33    35    1
   36    35    36    1
   37    22    37    1
   38    35    37    1
   39    35    38    1
   40    38    39    1
   41    38    40    1
   42    38    41    1
   43    41    42    1
   44    43    44    1
   45    43    45    1
   46    43    46    1
   47    46    47    1
   48    46    48    1
   49    48    49    1
   50    46    50    1
   51    50    51    1
   52    50    52    1
   53    52    53    1
   54    24    54    1
   55    50    54    1
   56    54    55    1
   57    54    56    1
   58    56    57    1
   59    43    58    1
   60    56    58    1
   61    56    59    1
   62    59    60    1
   63    59    61    1
   64    59    62    1
   65    62    63    1
   66    64    65    1
   67    64    66    1
   68    64    67    1
   69    67    68    1
   70    67    69    1
   71    69    70    1
   72    67    71    1
   73    71    72    1
   74    71    73    1
   75    73    74    1
   76    45    75    1
   77    71    75    1
   78    75    76    1
   79    75    77    1
   80    77    78    1
   81    64    79    1
   82    77    79    1
   83    77    80    1
   84    80    81    1
   85    80    82    1
   86    80    83    1
   87    83    84    1
   88    85    86    1
   89    85    87    1
   90    85    88    1
   91    88    89    1
   92    88    90    1
   93    90    91    1
   94    88    92    1
   95    92    93    1
   96    92    94    1
   97    94    95    1
   98    66    96    1
   99    92    96    1
  100    96    97    1
  101    96    98    1
  102    98    99    1
  103    85   100    1
  104    98   100    1
  105    98   101    1
  106   101   102    1
  107   101   103    1
  108   101   104    1
  109   104   105    1
  110   106   107    1
  111    12   108    1
  112   106   108    1
  113   106   109    1
  114   109   110    1
  115   109   111    1
  116   111   112    1
  117   109   113    1
  118   113   114    1
  119   113   115    1
  120   115   116    1
  121    87   117    1
  122   113   117    1
  123   117   118    1
  124   117   119    1
  125   119   120    1
  126   106   121    1
  127   119   121    1
  128   119   122    1
  129   122   123    1
  130   122   124    1
  131   122   125    1
  132   125   126    1
  133   127   128    1
  134   127   129    1
  135   127   130    2
  136   130   131    1
  137   130   132    1
  138   132   133    1
  139   132   134    1
  140   132   135    1
  141   135   136    1
  142   135   137    1
  143   135   138    1
  144   138   139    1
  145   138   140    1
  146   138   141    1
  147   141   142    1
  148   141   143    1
  149   141   144    1
  150   144   145    1
  151   144   146    2
@<TRIPOS>SUBSTRUCTURE
       1 MOL1            1 RESIDUE      1      MOL     
       2 MOL1          146 RESIDUE      1      MOL     
@<SCITEGIC>MOL_PROPERTY
VM2 Rank
SciTegic.value.IntegerValue
7

@<SCITEGIC>MOL_PROPERTY
Conf_Id
SciTegic.value.IntegerValue
21206

@<SCITEGIC>MOL_PROPERTY
Probability
SciTegic.value.DoubleValue
1.98

@<SCITEGIC>MOL_PROPERTY
Sum Probability
SciTegic.value.DoubleValue
22.31

@<SCITEGIC>MOL_PROPERTY
Delta G
SciTegic.value.DoubleValue
0.799

@<SCITEGIC>MOL_PROPERTY
G
SciTegic.value.DoubleValue
492.861

@<SCITEGIC>MOL_PROPERTY
E
SciTegic.value.DoubleValue
305.591

@<SCITEGIC>MOL_PROPERTY
-TS
SciTegic.value.DoubleValue
187.270

@<SCITEGIC>MOL_PROPERTY
U+W
SciTegic.value.DoubleValue
176.820

@<SCITEGIC>MOL_PROPERTY
U
SciTegic.value.DoubleValue
251.112

@<SCITEGIC>MOL_PROPERTY
W
SciTegic.value.DoubleValue
-74.293

@<SCITEGIC>MOL_PROPERTY
W(PB)
SciTegic.value.DoubleValue
-80.401

@<SCITEGIC>MOL_PROPERTY
W(SA)
SciTegic.value.DoubleValue
6.109

@<SCITEGIC>MOL_PROPERTY
Valence
SciTegic.value.DoubleValue
151.495

@<SCITEGIC>MOL_PROPERTY
Coulomb
SciTegic.value.DoubleValue
125.685

@<SCITEGIC>MOL_PROPERTY
VdW
SciTegic.value.DoubleValue
-26.068

@<SCITEGIC>MOL_PROPERTY
VdW6
SciTegic.value.DoubleValue
-181.424

@<SCITEGIC>MOL_PROPERTY
VdW12
SciTegic.value.DoubleValue
155.356

@<SCITEGIC>MOL_PROPERTY
Bond
SciTegic.value.DoubleValue
4.502

@<SCITEGIC>MOL_PROPERTY
Angle
SciTegic.value.DoubleValue
11.749

@<SCITEGIC>MOL_PROPERTY
Pdih
SciTegic.value.DoubleValue
135.242

@<SCITEGIC>MOL_PROPERTY
Idih
SciTegic.value.DoubleValue
0.001

@<SCITEGIC>MOL_PROPERTY
Tether
SciTegic.value.DoubleValue
0.000

@<TRIPOS>MOLECULE
CD_guest-s22_vm2_single.mol2 : vm2 host+ligand conformer 8
         146         151           2
SMALL
USER_CHARGES
 
@<TRIPOS>ATOM
       1    C1      16.260399   15.034274   20.460122 C.3        1 MOL1         0.2972
       2    H1      15.226672   14.919637   20.111322 H          1 MOL1         0.0751
       3    O1      16.548644   16.401879   20.827432 O.3        1 MOL1        -0.3740
       4    C2      16.556646   14.083898   21.649099 C.3        1 MOL1         0.1003
       5    H2      16.481095   13.057428   21.268002 H          1 MOL1         0.0783
       6    O2      15.591367   14.249689   22.697804 O.3        1 MOL1        -0.5519
       7    H3      15.790992   15.115562   23.132367 H          1 MOL1         0.3769
       8    C3      18.012328   14.296484   22.143773 C.3        1 MOL1         0.1053
       9    H4      18.088423   15.310367   22.560474 H          1 MOL1         0.0783
      10    O3      18.345067   13.335435   23.152392 O.3        1 MOL1        -0.5519
      11    H5      19.111792   13.716070   23.647302 H          1 MOL1         0.3769
      12    C4      19.019724   14.178052   20.963971 C.3        1 MOL1         0.1018
      13    H6      19.156717   13.119111   20.706911 H          1 MOL1         0.0783
      14    C5      18.574310   14.936929   19.683405 C.3        1 MOL1         0.1043
      15    H7      18.732710   16.013254   19.829608 H          1 MOL1         0.0783
      16    O4      17.176612   14.666271   19.409349 O.3        1 MOL1        -0.3740
      17    C6      19.386405   14.493918   18.448440 C.3        1 MOL1         0.0138
      18    H8      19.194825   13.430537   18.252247 H          1 MOL1         0.0794
      19    H9      20.457935   14.607277   18.659833 H          1 MOL1         0.0794
      20    O5      19.026866   15.284086   17.314053 O.3        1 MOL1        -0.5486
      21    H10     18.043970   15.299392   17.294492 H          1 MOL1         0.3769
      22    C7      14.937539   20.026318   21.955408 C.3        1 MOL1         0.2972
      23    H11     14.304030   20.862493   22.277146 H          1 MOL1         0.0751
      24    O6      16.215150   20.483878   21.465874 O.3        1 MOL1        -0.3740
      25    C8      15.180146   19.057814   23.137867 C.3        1 MOL1         0.1003
      26    H12     14.201986   18.672788   23.453642 H          1 MOL1         0.0783
      27    O7      15.776492   19.775454   24.232288 O.3        1 MOL1        -0.5519
      28    H13     16.308219   19.134425   24.771295 H          1 MOL1         0.3769
      29    C9      16.040313   17.846991   22.687315 C.3        1 MOL1         0.1053
      30    H14     17.056005   18.204617   22.476815 H          1 MOL1         0.0783
      31    O8      16.073419   16.865230   23.730049 O.3        1 MOL1        -0.5519
      32    H15     16.637991   17.234702   24.458206 H          1 MOL1         0.3769
      33    C10     15.482875   17.192958   21.390448 C.3        1 MOL1         0.1018
      34    H16     14.607027   16.581629   21.645660 H          1 MOL1         0.0783
      35    C11     15.092593   18.234314   20.306321 C.3        1 MOL1         0.1043
      36    H17     16.013774   18.650377   19.877525 H          1 MOL1         0.0783
      37    O9      14.292031   19.282617   20.903367 O.3        1 MOL1        -0.3740
      38    C12     14.263357   17.623558   19.158110 C.3        1 MOL1         0.0138
      39    H18     13.312546   17.246249   19.557782 H          1 MOL1         0.0794
      40    H19     14.808542   16.775282   18.724333 H          1 MOL1         0.0794
      41    O10     14.029772   18.610839   18.151771 O.3        1 MOL1        -0.5486
      42    H20     13.737864   19.422207   18.626348 H          1 MOL1         0.3769
      43    C13     18.383453   24.013331   21.087306 C.3        1 MOL1         0.2972
      44    H21     18.717305   25.036454   20.872945 H          1 MOL1         0.0751
      45    O11     19.481273   23.154803   21.451310 O.3        1 MOL1        -0.3740
      46    C14     17.359877   24.005304   22.251077 C.3        1 MOL1         0.1003
      47    H22     16.500694   24.613761   21.940233 H          1 MOL1         0.0783
      48    O12     17.925070   24.558932   23.447632 O.3        1 MOL1        -0.5519
      49    H23     17.259817   24.365589   24.146200 H          1 MOL1         0.3769
      50    C15     16.855196   22.569468   22.527936 C.3        1 MOL1         0.1053
      51    H24     17.704345   21.981472   22.900299 H          1 MOL1         0.0783
      52    O13     15.827089   22.612410   23.524771 O.3        1 MOL1        -0.5519
      53    H25     15.749411   21.688533   23.871954 H          1 MOL1         0.3769
      54    C16     16.335993   21.898180   21.226650 C.3        1 MOL1         0.1018
      55    H26     15.372620   22.339767   20.939172 H          1 MOL1         0.0783
      56    C17     17.334602   22.059487   20.049394 C.3        1 MOL1         0.1043
      57    H27     18.213249   21.431678   20.250089 H          1 MOL1         0.0783
      58    O14     17.735901   23.446749   19.929077 O.3        1 MOL1        -0.3740
      59    C18     16.738960   21.628668   18.689993 C.3        1 MOL1         0.0138
      60    H28     16.449080   20.571300   18.741031 H          1 MOL1         0.0794
      61    H29     17.516806   21.718530   17.920190 H          1 MOL1         0.0794
      62    O15     15.607166   22.433875   18.346348 O.3        1 MOL1        -0.5486
      63    H30     15.912159   23.366714   18.400315 H          1 MOL1         0.3769
      64    C19     23.592011   22.880750   21.566786 C.3        1 MOL1         0.2972
      65    H31     24.676387   23.047922   21.572933 H          1 MOL1         0.0751
      66    O16     23.265038   21.477456   21.538924 O.3        1 MOL1        -0.3740
      67    C20     22.951997   23.513342   22.826897 C.3        1 MOL1         0.1003
      68    H32     23.147964   24.592776   22.787612 H          1 MOL1         0.0783
      69    O17     23.520314   22.975154   24.028708 O.3        1 MOL1        -0.5519
      70    H33     22.929129   23.296459   24.746377 H          1 MOL1         0.3769
      71    C21     21.420352   23.308350   22.827471 C.3        1 MOL1         0.1053
      72    H34     21.219040   22.237441   22.961569 H          1 MOL1         0.0783
      73    O18     20.839119   24.053118   23.904720 O.3        1 MOL1        -0.5519
      74    H35     19.861724   24.055775   23.752481 H          1 MOL1         0.3769
      75    C22     20.786306   23.758371   21.488210 C.3        1 MOL1         0.1018
      76    H36     20.735356   24.855205   21.480042 H          1 MOL1         0.0783
      77    C23     21.569205   23.256870   20.242012 C.3        1 MOL1         0.1043
      78    H37     21.390442   22.178914   20.130643 H          1 MOL1         0.0783
      79    O19     22.987705   23.503443   20.413717 O.3        1 MOL1        -0.3740
      80    C24     21.133275   23.941990   18.928006 C.3        1 MOL1         0.0138
      81    H38     20.082305   23.698218   18.725834 H          1 MOL1         0.0794
      82    H39     21.728263   23.530072   18.101951 H          1 MOL1         0.0794
      83    O20     21.306292   25.360171   19.004629 O.3        1 MOL1        -0.5486
      84    H40     22.252235   25.508020   19.228005 H          1 MOL1         0.3769
      85    C25     24.899750   17.684789   21.124354 C.3        1 MOL1         0.2972
      86    H41     25.548771   16.825991   20.910258 H          1 MOL1         0.0751
      87    O21     23.555902   17.266360   21.431788 O.3        1 MOL1        -0.3740
      88    C26     25.460330   18.519626   22.307086 C.3        1 MOL1         0.1003
      89    H42     26.461879   18.862642   22.016607 H          1 MOL1         0.0783
      90    O22     25.560146   17.742963   23.507848 O.3        1 MOL1        -0.5519
      91    H43     25.825124   18.388832   24.201037 H          1 MOL1         0.3769
      92    C27     24.588633   19.770122   22.569182 C.3        1 MOL1         0.1053
      93    H44     23.612407   19.433720   22.944882 H          1 MOL1         0.0783
      94    O23     25.226068   20.601047   23.547201 O.3        1 MOL1        -0.5519
      95    H45     24.609991   21.356108   23.721217 H          1 MOL1         0.3769
      96    C28     24.352939   20.575924   21.267857 C.3        1 MOL1         0.1018
      97    H46     25.274898   21.107243   20.997074 H          1 MOL1         0.0783
      98    C29     23.923112   19.673196   20.082008 C.3        1 MOL1         0.1043
      99    H47     22.903259   19.315841   20.269863 H          1 MOL1         0.0783
     100    O24     24.831602   18.548854   19.970705 O.3        1 MOL1        -0.3740
     101    C30     23.923363   20.411534   18.725585 C.3        1 MOL1         0.0138
     102    H48     23.226787   21.258076   18.776571 H          1 MOL1         0.0794
     103    H49     23.550730   19.726282   17.952617 H          1 MOL1         0.0794
     104    O25     25.236408   20.871291   18.391275 O.3        1 MOL1        -0.5486
     105    H50     25.820663   20.082388   18.442999 H          1 MOL1         0.3769
     106    C31     21.232265   13.906718   21.979150 C.3        1 MOL1         0.2972
     107    H51     20.814511   12.913012   22.184747 H          1 MOL1         0.0751
     108    O26     20.258423   14.782722   21.376949 O.3        1 MOL1        -0.3740
     109    C32     21.750201   14.550984   23.287919 C.3        1 MOL1         0.1003
     110    H52     22.554069   13.909254   23.671500 H          1 MOL1         0.0783
     111    O27     20.716376   14.645001   24.277025 O.3        1 MOL1        -0.5519
     112    H53     21.086762   15.245527   24.962379 H          1 MOL1         0.3769
     113    C33     22.352362   15.946639   23.011600 C.3        1 MOL1         0.1053
     114    H54     21.539837   16.620547   22.707530 H          1 MOL1         0.0783
     115    O28     22.977136   16.431531   24.205710 O.3        1 MOL1        -0.5519
     116    H55     23.688105   17.052967   23.918152 H          1 MOL1         0.3769
     117    C34     23.393331   15.903101   21.865834 C.3        1 MOL1         0.1018
     118    H56     24.329650   15.486112   22.260906 H          1 MOL1         0.0783
     119    C35     22.913983   15.072668   20.639110 C.3        1 MOL1         0.1043
     120    H57     22.144755   15.651786   20.112405 H          1 MOL1         0.0783
     121    O29     22.353738   13.808170   21.075879 O.3        1 MOL1        -0.3740
     122    C36     24.034455   14.761966   19.621780 C.3        1 MOL1         0.0138
     123    H58     24.382397   15.701573   19.172784 H          1 MOL1         0.0794
     124    H59     23.614997   14.151144   18.811166 H          1 MOL1         0.0794
     125    O30     25.125228   14.077687   20.244924 O.3        1 MOL1        -0.5486
     126    H60     24.747761   13.261605   20.642434 H          1 MOL1         0.3769
     127    C1      20.202121   19.305586   18.667347 C.2        1 MOL1        -0.2535
     128    H1      20.789722   19.200552   17.757496 H          1 MOL1         0.0845
     129    H2      19.459370   20.099132   18.696413 H          1 MOL1         0.0845
     130    C2      20.388470   18.488002   19.706554 C.2        1 MOL1        -0.1324
     131    H3      21.136395   17.698545   19.657643 H          1 MOL1         0.0833
     132    C3      19.608667   18.565414   20.999139 C.3        1 MOL1        -0.1813
     133    H4      19.481925   17.556608   21.409425 H          1 MOL1         0.0753
     134    H5      18.600616   18.954110   20.804746 H          1 MOL1         0.0753
     135    C4      20.320877   19.473043   22.025112 C.3        1 MOL1        -0.1855
     136    H6      21.338354   19.103989   22.207468 H          1 MOL1         0.0755
     137    H7      20.426484   20.473508   21.587586 H          1 MOL1         0.0755
     138    C5      19.562527   19.592839   23.367651 C.3        1 MOL1        -0.1855
     139    H8      18.517639   19.868548   23.179606 H          1 MOL1         0.0755
     140    H9      19.998411   20.414447   23.951708 H          1 MOL1         0.0755
     141    C6      19.616747   18.300448   24.223331 C.3        1 MOL1        -0.1958
     142    H10     19.186802   17.451529   23.680866 H          1 MOL1         0.0753
     143    H11     20.658281   18.046937   24.450295 H          1 MOL1         0.0753
     144    C7      18.871336   18.434257   25.546619 C.2        1 MOL1         0.6174
     145    O1      17.678212   18.193301   25.552572 O.co2      1 MOL1        -0.6695
     146    O2      19.494852   18.792997   26.525868 O.co2      1 MOL1        -0.6695
@<TRIPOS>BOND
    1     1     2    1
    2     1     3    1
    3     1     4    1
    4     4     5    1
    5     4     6    1
    6     6     7    1
    7     4     8    1
    8     8     9    1
    9     8    10    1
   10    10    11    1
   11     8    12    1
   12    12    13    1
   13    12    14    1
   14    14    15    1
   15     1    16    1
   16    14    16    1
   17    14    17    1
   18    17    18    1
   19    17    19    1
   20    17    20    1
   21    20    21    1
   22    22    23    1
   23    22    24    1
   24    22    25    1
   25    25    26    1
   26    25    27    1
   27    27    28    1
   28    25    29    1
   29    29    30    1
   30    29    31    1
   31    31    32    1
   32     3    33    1
   33    29    33    1
   34    33    34    1
   35    33    35    1
   36    35    36    1
   37    22    37    1
   38    35    37    1
   39    35    38    1
   40    38    39    1
   41    38    40    1
   42    38    41    1
   43    41    42    1
   44    43    44    1
   45    43    45    1
   46    43    46    1
   47    46    47    1
   48    46    48    1
   49    48    49    1
   50    46    50    1
   51    50    51    1
   52    50    52    1
   53    52    53    1
   54    24    54    1
   55    50    54    1
   56    54    55    1
   57    54    56    1
   58    56    57    1
   59    43    58    1
   60    56    58    1
   61    56    59    1
   62    59    60    1
   63    59    61    1
   64    59    62    1
   65    62    63    1
   66    64    65    1
   67    64    66    1
   68    64    67    1
   69    67    68    1
   70    67    69    1
   71    69    70    1
   72    67    71    1
   73    71    72    1
   74    71    73    1
   75    73    74    1
   76    45    75    1
   77    71    75    1
   78    75    76    1
   79    75    77    1
   80    77    78    1
   81    64    79    1
   82    77    79    1
   83    77    80    1
   84    80    81    1
   85    80    82    1
   86    80    83    1
   87    83    84    1
   88    85    86    1
   89    85    87    1
   90    85    88    1
   91    88    89    1
   92    88    90    1
   93    90    91    1
   94    88    92    1
   95    92    93    1
   96    92    94    1
   97    94    95    1
   98    66    96    1
   99    92    96    1
  100    96    97    1
  101    96    98    1
  102    98    99    1
  103    85   100    1
  104    98   100    1
  105    98   101    1
  106   101   102    1
  107   101   103    1
  108   101   104    1
  109   104   105    1
  110   106   107    1
  111    12   108    1
  112   106   108    1
  113   106   109    1
  114   109   110    1
  115   109   111    1
  116   111   112    1
  117   109   113    1
  118   113   114    1
  119   113   115    1
  120   115   116    1
  121    87   117    1
  122   113   117    1
  123   117   118    1
  124   117   119    1
  125   119   120    1
  126   106   121    1
  127   119   121    1
  128   119   122    1
  129   122   123    1
  130   122   124    1
  131   122   125    1
  132   125   126    1
  133   127   128    1
  134   127   129    1
  135   127   130    2
  136   130   131    1
  137   130   132    1
  138   132   133    1
  139   132   134    1
  140   132   135    1
  141   135   136    1
  142   135   137    1
  143   135   138    1
  144   138   139    1
  145   138   140    1
  146   138   141    1
  147   141   142    1
  148   141   143    1
  149   141   144    1
  150   144   145    1
  151   144   146    2
@<TRIPOS>SUBSTRUCTURE
       1 MOL1            1 RESIDUE      1      MOL     
       2 MOL1          146 RESIDUE      1      MOL     
@<SCITEGIC>MOL_PROPERTY
VM2 Rank
SciTegic.value.IntegerValue
8

@<SCITEGIC>MOL_PROPERTY
Conf_Id
SciTegic.value.IntegerValue
15233

@<SCITEGIC>MOL_PROPERTY
Probability
SciTegic.value.DoubleValue
1.65

@<SCITEGIC>MOL_PROPERTY
Sum Probability
SciTegic.value.DoubleValue
23.96

@<SCITEGIC>MOL_PROPERTY
Delta G
SciTegic.value.DoubleValue
0.905

@<SCITEGIC>MOL_PROPERTY
G
SciTegic.value.DoubleValue
492.967

@<SCITEGIC>MOL_PROPERTY
E
SciTegic.value.DoubleValue
305.222

@<SCITEGIC>MOL_PROPERTY
-TS
SciTegic.value.DoubleValue
187.745

@<SCITEGIC>MOL_PROPERTY
U+W
SciTegic.value.DoubleValue
176.451

@<SCITEGIC>MOL_PROPERTY
U
SciTegic.value.DoubleValue
248.872

@<SCITEGIC>MOL_PROPERTY
W
SciTegic.value.DoubleValue
-72.421

@<SCITEGIC>MOL_PROPERTY
W(PB)
SciTegic.value.DoubleValue
-78.526

@<SCITEGIC>MOL_PROPERTY
W(SA)
SciTegic.value.DoubleValue
6.105

@<SCITEGIC>MOL_PROPERTY
Valence
SciTegic.value.DoubleValue
152.386

@<SCITEGIC>MOL_PROPERTY
Coulomb
SciTegic.value.DoubleValue
122.655

@<SCITEGIC>MOL_PROPERTY
VdW
SciTegic.value.DoubleValue
-26.169

@<SCITEGIC>MOL_PROPERTY
VdW6
SciTegic.value.DoubleValue
-180.157

@<SCITEGIC>MOL_PROPERTY
VdW12
SciTegic.value.DoubleValue
153.988

@<SCITEGIC>MOL_PROPERTY
Bond
SciTegic.value.DoubleValue
4.463

@<SCITEGIC>MOL_PROPERTY
Angle
SciTegic.value.DoubleValue
11.462

@<SCITEGIC>MOL_PROPERTY
Pdih
SciTegic.value.DoubleValue
136.459

@<SCITEGIC>MOL_PROPERTY
Idih
SciTegic.value.DoubleValue
0.001

@<SCITEGIC>MOL_PROPERTY
Tether
SciTegic.value.DoubleValue
0.000

