@<TRIPOS>MOLECULE
CD_guest-s16_vm2_single.mol2 : vm2 host+ligand conformer 1
         139         145           2
SMALL
USER_CHARGES
 
@<TRIPOS>ATOM
       1    C1      16.253313   15.058986   20.609142 C.3        1 MOL1         0.2972
       2    H1      15.189155   14.948144   20.363895 H          1 MOL1         0.0751
       3    O1      16.603781   16.442367   20.833294 O.3        1 MOL1        -0.3740
       4    C2      16.639045   14.199378   21.841182 C.3        1 MOL1         0.1003
       5    H2      16.465994   13.151606   21.562580 H          1 MOL1         0.0783
       6    O2      15.838245   14.506021   22.991922 O.3        1 MOL1        -0.5519
       7    H3      16.062777   15.434033   23.255861 H          1 MOL1         0.3769
       8    C3      18.142162   14.357201   22.175326 C.3        1 MOL1         0.1053
       9    H4      18.299349   15.380259   22.545202 H          1 MOL1         0.0783
      10    O3      18.475968   13.409427   23.196037 O.3        1 MOL1        -0.5519
      11    H5      17.703960   13.411680   23.807219 H          1 MOL1         0.3769
      12    C4      19.048847   14.154735   20.926254 C.3        1 MOL1         0.1018
      13    H6      19.167610   13.081559   20.726086 H          1 MOL1         0.0783
      14    C5      18.484425   14.837128   19.649611 C.3        1 MOL1         0.1043
      15    H7      18.656239   15.914998   19.722973 H          1 MOL1         0.0783
      16    O4      17.065232   14.575717   19.520072 O.3        1 MOL1        -0.3740
      17    C6      19.176541   14.348221   18.363521 C.3        1 MOL1         0.0138
      18    H8      18.959989   13.282161   18.212728 H          1 MOL1         0.0794
      19    H9      20.263853   14.459155   18.474098 H          1 MOL1         0.0794
      20    O5      18.716333   15.121614   17.253582 O.3        1 MOL1        -0.5486
      21    H10     17.739529   15.007770   17.228700 H          1 MOL1         0.3769
      22    C7      15.050180   20.154654   21.832551 C.3        1 MOL1         0.2972
      23    H11     14.423986   20.991059   22.168144 H          1 MOL1         0.0751
      24    O6      16.227501   20.616337   21.140256 O.3        1 MOL1        -0.3740
      25    C8      15.484528   19.284818   23.041246 C.3        1 MOL1         0.1003
      26    H12     14.566950   18.906153   23.510174 H          1 MOL1         0.0783
      27    O7      16.225076   20.046528   24.008718 O.3        1 MOL1        -0.5519
      28    H13     16.029663   20.999799   23.840380 H          1 MOL1         0.3769
      29    C9      16.322029   18.071249   22.575021 C.3        1 MOL1         0.1053
      30    H14     17.276972   18.447383   22.182330 H          1 MOL1         0.0783
      31    O8      16.560726   17.217941   23.698629 O.3        1 MOL1        -0.5519
      32    H15     16.869009   17.826134   24.407945 H          1 MOL1         0.3769
      33    C10     15.608377   17.284338   21.446217 C.3        1 MOL1         0.1018
      34    H16     14.789231   16.699918   21.885419 H          1 MOL1         0.0783
      35    C11     15.050513   18.217340   20.335189 C.3        1 MOL1         0.1043
      36    H17     15.897395   18.619115   19.763304 H          1 MOL1         0.0783
      37    O9      14.305097   19.307476   20.931820 O.3        1 MOL1        -0.3740
      38    C12     14.115856   17.495656   19.338871 C.3        1 MOL1         0.0138
      39    H18     14.694127   16.742032   18.788027 H          1 MOL1         0.0794
      40    H19     13.750135   18.226490   18.605122 H          1 MOL1         0.0794
      41    O10     13.016786   16.876793   20.013861 O.3        1 MOL1        -0.5486
      42    H20     12.554712   17.593756   20.502804 H          1 MOL1         0.3769
      43    C13     18.463649   24.051702   20.687659 C.3        1 MOL1         0.2972
      44    H21     18.883295   25.039921   20.458968 H          1 MOL1         0.0751
      45    O11     19.499961   23.096744   21.002228 O.3        1 MOL1        -0.3740
      46    C14     17.442749   24.129317   21.853043 C.3        1 MOL1         0.1003
      47    H22     16.608394   24.752965   21.506221 H          1 MOL1         0.0783
      48    O12     18.005144   24.730482   23.028313 O.3        1 MOL1        -0.5519
      49    H23     18.732905   24.133760   23.336977 H          1 MOL1         0.3769
      50    C15     16.880670   22.722943   22.172614 C.3        1 MOL1         0.1053
      51    H24     17.705774   22.105782   22.555459 H          1 MOL1         0.0783
      52    O13     15.865210   22.850026   23.174722 O.3        1 MOL1        -0.5519
      53    H25     16.204280   23.536838   23.793379 H          1 MOL1         0.3769
      54    C16     16.314272   22.035483   20.896675 C.3        1 MOL1         0.1018
      55    H26     15.330608   22.459113   20.654200 H          1 MOL1         0.0783
      56    C17     17.247606   22.190285   19.664053 C.3        1 MOL1         0.1043
      57    H27     18.094164   21.508383   19.796478 H          1 MOL1         0.0783
      58    O14     17.736879   23.550236   19.547238 O.3        1 MOL1        -0.3740
      59    C18     16.554970   21.819887   18.334214 C.3        1 MOL1         0.0138
      60    H28     16.199179   20.782529   18.391914 H          1 MOL1         0.0794
      61    H29     17.295512   21.869856   17.524769 H          1 MOL1         0.0794
      62    O15     15.462154   22.701959   18.061885 O.3        1 MOL1        -0.5486
      63    H30     15.830966   23.612598   18.101470 H          1 MOL1         0.3769
      64    C19     23.451821   22.691327   22.162585 C.3        1 MOL1         0.2972
      65    H31     24.481484   22.822935   22.519429 H          1 MOL1         0.0751
      66    O16     23.264772   21.405171   21.539757 O.3        1 MOL1        -0.3740
      67    C20     22.450122   22.841153   23.337286 C.3        1 MOL1         0.1003
      68    H32     22.570719   23.857662   23.734018 H          1 MOL1         0.0783
      69    O17     22.710988   21.896877   24.387879 O.3        1 MOL1        -0.5519
      70    H33     23.533849   21.406471   24.144246 H          1 MOL1         0.3769
      71    C21     20.991677   22.691584   22.846646 C.3        1 MOL1         0.1053
      72    H34     20.845151   21.649845   22.538514 H          1 MOL1         0.0783
      73    O18     20.109591   22.996737   23.930399 O.3        1 MOL1        -0.5519
      74    H35     20.474555   22.493538   24.693301 H          1 MOL1         0.3769
      75    C22     20.693555   23.607075   21.630490 C.3        1 MOL1         0.1018
      76    H36     20.560407   24.636333   21.989241 H          1 MOL1         0.0783
      77    C23     21.820047   23.564023   20.558585 C.3        1 MOL1         0.1043
      78    H37     21.762354   22.598117   20.038798 H          1 MOL1         0.0783
      79    O19     23.120866   23.702395   21.186656 O.3        1 MOL1        -0.3740
      80    C24     21.690076   24.672924   19.490945 C.3        1 MOL1         0.0138
      81    H38     20.760946   24.518391   18.926349 H          1 MOL1         0.0794
      82    H39     22.522757   24.579166   18.781029 H          1 MOL1         0.0794
      83    O20     21.692294   25.971678   20.090677 O.3        1 MOL1        -0.5486
      84    H40     22.529964   26.037845   20.601137 H          1 MOL1         0.3769
      85    C25     25.088284   17.738057   21.010755 C.3        1 MOL1         0.2972
      86    H41     25.751118   16.890841   20.792339 H          1 MOL1         0.0751
      87    O21     23.712869   17.312922   21.126967 O.3        1 MOL1        -0.3740
      88    C26     25.537206   18.484189   22.296605 C.3        1 MOL1         0.1003
      89    H42     26.540646   18.882628   22.097490 H          1 MOL1         0.0783
      90    O22     25.609083   17.615903   23.436693 O.3        1 MOL1        -0.5519
      91    H43     24.682183   17.326708   23.632034 H          1 MOL1         0.3769
      92    C27     24.603344   19.683431   22.587918 C.3        1 MOL1         0.1053
      93    H44     23.612181   19.288100   22.851374 H          1 MOL1         0.0783
      94    O23     25.138999   20.431098   23.684795 O.3        1 MOL1        -0.5519
      95    H45     25.456818   19.753688   24.324316 H          1 MOL1         0.3769
      96    C28     24.442242   20.597987   21.343542 C.3        1 MOL1         0.1018
      97    H46     25.340532   21.217960   21.221704 H          1 MOL1         0.0783
      98    C29     24.209782   19.800934   20.031151 C.3        1 MOL1         0.1043
      99    H47     23.182384   19.416015   20.026246 H          1 MOL1         0.0783
     100    O24     25.154686   18.704365   19.941151 O.3        1 MOL1        -0.3740
     101    C30     24.402759   20.689888   18.784965 C.3        1 MOL1         0.0138
     102    H48     25.444472   21.035185   18.744420 H          1 MOL1         0.0794
     103    H49     23.759701   21.576135   18.869393 H          1 MOL1         0.0794
     104    O25     24.071918   19.958300   17.603713 O.3        1 MOL1        -0.5486
     105    H50     24.552924   19.103379   17.669197 H          1 MOL1         0.3769
     106    C31     21.288711   14.033678   21.942556 C.3        1 MOL1         0.2972
     107    H51     20.887149   13.059139   22.248370 H          1 MOL1         0.0751
     108    O26     20.324192   14.785522   21.176940 O.3        1 MOL1        -0.3740
     109    C32     21.731016   14.853437   23.186130 C.3        1 MOL1         0.1003
     110    H52     22.506611   14.265123   23.693715 H          1 MOL1         0.0783
     111    O27     20.651043   15.085124   24.103732 O.3        1 MOL1        -0.5519
     112    H53     19.951321   14.417261   23.906596 H          1 MOL1         0.3769
     113    C33     22.354893   16.204554   22.770946 C.3        1 MOL1         0.1053
     114    H54     21.561239   16.824703   22.334011 H          1 MOL1         0.0783
     115    O28     22.879992   16.842348   23.939176 O.3        1 MOL1        -0.5519
     116    H55     22.158299   16.764466   24.603792 H          1 MOL1         0.3769
     117    C34     23.469366   16.016818   21.710935 C.3        1 MOL1         0.1018
     118    H56     24.363280   15.616049   22.206523 H          1 MOL1         0.0783
     119    C35     23.036546   15.060589   20.563142 C.3        1 MOL1         0.1043
     120    H57     22.290773   15.575337   19.943363 H          1 MOL1         0.0783
     121    O29     22.458012   13.849815   21.114687 O.3        1 MOL1        -0.3740
     122    C36     24.203406   14.647904   19.638529 C.3        1 MOL1         0.0138
     123    H58     24.582066   15.539779   19.121783 H          1 MOL1         0.0794
     124    H59     23.819920   13.963809   18.869705 H          1 MOL1         0.0794
     125    O30     25.256015   14.023201   20.379103 O.3        1 MOL1        -0.5486
     126    H60     24.851725   13.251979   20.835568 H          1 MOL1         0.3769
     127    C1      20.262854   19.637840   20.576425 C.3        1 MOL1        -0.1693
     128    H1      19.362107   20.029203   21.066549 H          1 MOL1         0.0829
     129    H2      21.137001   19.921990   21.169050 H          1 MOL1         0.0829
     130    C2      20.353063   19.904559   19.038435 C.3        1 MOL1        -0.1768
     131    H3      19.908718   20.835979   18.675063 H          1 MOL1         0.0829
     132    H4      21.359213   19.814652   18.612422 H          1 MOL1         0.0829
     133    C3      19.481594   18.620870   18.883694 C.3        1 MOL1         0.1211
     134    H5      18.403468   18.794943   19.000123 H          1 MOL1         0.0786
     135    C4      20.188361   18.129948   20.183831 C.3        1 MOL1        -0.1768
     136    H6      21.160668   17.653212   20.016025 H          1 MOL1         0.0829
     137    H7      19.596157   17.504957   20.859415 H          1 MOL1         0.0829
     138    O1      19.752085   17.876365   17.716830 O.3        1 MOL1        -0.5515
     139    H8      19.310872   16.997498   17.778220 H          1 MOL1         0.3773
@<TRIPOS>BOND
    1     1     2    1
    2     1     3    1
    3     1     4    1
    4     4     5    1
    5     4     6    1
    6     6     7    1
    7     4     8    1
    8     8     9    1
    9     8    10    1
   10    10    11    1
   11     8    12    1
   12    12    13    1
   13    12    14    1
   14    14    15    1
   15     1    16    1
   16    14    16    1
   17    14    17    1
   18    17    18    1
   19    17    19    1
   20    17    20    1
   21    20    21    1
   22    22    23    1
   23    22    24    1
   24    22    25    1
   25    25    26    1
   26    25    27    1
   27    27    28    1
   28    25    29    1
   29    29    30    1
   30    29    31    1
   31    31    32    1
   32     3    33    1
   33    29    33    1
   34    33    34    1
   35    33    35    1
   36    35    36    1
   37    22    37    1
   38    35    37    1
   39    35    38    1
   40    38    39    1
   41    38    40    1
   42    38    41    1
   43    41    42    1
   44    43    44    1
   45    43    45    1
   46    43    46    1
   47    46    47    1
   48    46    48    1
   49    48    49    1
   50    46    50    1
   51    50    51    1
   52    50    52    1
   53    52    53    1
   54    24    54    1
   55    50    54    1
   56    54    55    1
   57    54    56    1
   58    56    57    1
   59    43    58    1
   60    56    58    1
   61    56    59    1
   62    59    60    1
   63    59    61    1
   64    59    62    1
   65    62    63    1
   66    64    65    1
   67    64    66    1
   68    64    67    1
   69    67    68    1
   70    67    69    1
   71    69    70    1
   72    67    71    1
   73    71    72    1
   74    71    73    1
   75    73    74    1
   76    45    75    1
   77    71    75    1
   78    75    76    1
   79    75    77    1
   80    77    78    1
   81    64    79    1
   82    77    79    1
   83    77    80    1
   84    80    81    1
   85    80    82    1
   86    80    83    1
   87    83    84    1
   88    85    86    1
   89    85    87    1
   90    85    88    1
   91    88    89    1
   92    88    90    1
   93    90    91    1
   94    88    92    1
   95    92    93    1
   96    92    94    1
   97    94    95    1
   98    66    96    1
   99    92    96    1
  100    96    97    1
  101    96    98    1
  102    98    99    1
  103    85   100    1
  104    98   100    1
  105    98   101    1
  106   101   102    1
  107   101   103    1
  108   101   104    1
  109   104   105    1
  110   106   107    1
  111    12   108    1
  112   106   108    1
  113   106   109    1
  114   109   110    1
  115   109   111    1
  116   111   112    1
  117   109   113    1
  118   113   114    1
  119   113   115    1
  120   115   116    1
  121    87   117    1
  122   113   117    1
  123   117   118    1
  124   117   119    1
  125   119   120    1
  126   106   121    1
  127   119   121    1
  128   119   122    1
  129   122   123    1
  130   122   124    1
  131   122   125    1
  132   125   126    1
  133   127   128    1
  134   127   129    1
  135   127   130    1
  136   130   131    1
  137   130   132    1
  138   130   133    1
  139   133   134    1
  140   127   135    1
  141   133   135    1
  142   135   136    1
  143   135   137    1
  144   133   138    1
  145   138   139    1
@<TRIPOS>SUBSTRUCTURE
       1 MOL1            1 RESIDUE      1      MOL     
       2 MOL1          139 RESIDUE      1      MOL     
@<SCITEGIC>MOL_PROPERTY
VM2 Rank
SciTegic.value.IntegerValue
1

@<SCITEGIC>MOL_PROPERTY
Conf_Id
SciTegic.value.IntegerValue
22705

@<SCITEGIC>MOL_PROPERTY
Probability
SciTegic.value.DoubleValue
1.56

@<SCITEGIC>MOL_PROPERTY
Sum Probability
SciTegic.value.DoubleValue
1.56

@<SCITEGIC>MOL_PROPERTY
Delta G
SciTegic.value.DoubleValue
0.000

@<SCITEGIC>MOL_PROPERTY
G
SciTegic.value.DoubleValue
538.064

@<SCITEGIC>MOL_PROPERTY
E
SciTegic.value.DoubleValue
358.998

@<SCITEGIC>MOL_PROPERTY
-TS
SciTegic.value.DoubleValue
179.066

@<SCITEGIC>MOL_PROPERTY
U+W
SciTegic.value.DoubleValue
236.487

@<SCITEGIC>MOL_PROPERTY
U
SciTegic.value.DoubleValue
269.508

@<SCITEGIC>MOL_PROPERTY
W
SciTegic.value.DoubleValue
-33.021

@<SCITEGIC>MOL_PROPERTY
W(PB)
SciTegic.value.DoubleValue
-39.059

@<SCITEGIC>MOL_PROPERTY
W(SA)
SciTegic.value.DoubleValue
6.038

@<SCITEGIC>MOL_PROPERTY
Valence
SciTegic.value.DoubleValue
149.681

@<SCITEGIC>MOL_PROPERTY
Coulomb
SciTegic.value.DoubleValue
136.853

@<SCITEGIC>MOL_PROPERTY
VdW
SciTegic.value.DoubleValue
-17.026

@<SCITEGIC>MOL_PROPERTY
VdW6
SciTegic.value.DoubleValue
-163.960

@<SCITEGIC>MOL_PROPERTY
VdW12
SciTegic.value.DoubleValue
146.934

@<SCITEGIC>MOL_PROPERTY
Bond
SciTegic.value.DoubleValue
4.599

@<SCITEGIC>MOL_PROPERTY
Angle
SciTegic.value.DoubleValue
11.338

@<SCITEGIC>MOL_PROPERTY
Pdih
SciTegic.value.DoubleValue
133.745

@<SCITEGIC>MOL_PROPERTY
Idih
SciTegic.value.DoubleValue
0.000

@<SCITEGIC>MOL_PROPERTY
Tether
SciTegic.value.DoubleValue
0.000

@<TRIPOS>MOLECULE
CD_guest-s16_vm2_single.mol2 : vm2 host+ligand conformer 2
         139         145           2
SMALL
USER_CHARGES
 
@<TRIPOS>ATOM
       1    C1      16.184115   15.019077   20.598707 C.3        1 MOL1         0.2972
       2    H1      15.121431   14.896807   20.352446 H          1 MOL1         0.0751
       3    O1      16.514487   16.399848   20.862052 O.3        1 MOL1        -0.3740
       4    C2      16.588973   14.141518   21.810469 C.3        1 MOL1         0.1003
       5    H2      16.455679   13.095236   21.505669 H          1 MOL1         0.0783
       6    O2      15.768734   14.392467   22.960853 O.3        1 MOL1        -0.5519
       7    H3      15.941915   15.327406   23.238502 H          1 MOL1         0.3769
       8    C3      18.084206   14.349061   22.153134 C.3        1 MOL1         0.1053
       9    H4      18.205371   15.374884   22.528989 H          1 MOL1         0.0783
      10    O3      18.450280   13.409955   23.170760 O.3        1 MOL1        -0.5519
      11    H5      17.675589   13.378375   23.777716 H          1 MOL1         0.3769
      12    C4      18.996464   14.183737   20.902049 C.3        1 MOL1         0.1018
      13    H6      19.146724   13.115748   20.695089 H          1 MOL1         0.0783
      14    C5      18.418219   14.857501   19.627627 C.3        1 MOL1         0.1043
      15    H7      18.573086   15.938218   19.703402 H          1 MOL1         0.0783
      16    O4      17.003229   14.573445   19.497909 O.3        1 MOL1        -0.3740
      17    C6      19.123827   14.373392   18.345675 C.3        1 MOL1         0.0138
      18    H8      18.900703   13.310156   18.184599 H          1 MOL1         0.0794
      19    H9      20.210398   14.472329   18.472983 H          1 MOL1         0.0794
      20    O5      18.691459   15.155969   17.231537 O.3        1 MOL1        -0.5486
      21    H10     17.714792   15.046994   17.183277 H          1 MOL1         0.3769
      22    C7      14.988057   20.106775   21.844430 C.3        1 MOL1         0.2972
      23    H11     14.380499   20.967153   22.152547 H          1 MOL1         0.0751
      24    O6      16.224226   20.519372   21.228184 O.3        1 MOL1        -0.3740
      25    C8      15.319812   19.213087   23.066012 C.3        1 MOL1         0.1003
      26    H12     14.365463   18.854946   23.473628 H          1 MOL1         0.0783
      27    O7      16.020119   19.948053   24.083286 O.3        1 MOL1        -0.5519
      28    H13     15.921596   20.907180   23.868045 H          1 MOL1         0.3769
      29    C9      16.151937   17.983252   22.633042 C.3        1 MOL1         0.1053
      30    H14     17.137542   18.341404   22.307017 H          1 MOL1         0.0783
      31    O8      16.304618   17.111102   23.756681 O.3        1 MOL1        -0.5519
      32    H15     16.579285   17.703710   24.492556 H          1 MOL1         0.3769
      33    C10     15.492194   17.227762   21.448920 C.3        1 MOL1         0.1018
      34    H16     14.651646   16.633987   21.831779 H          1 MOL1         0.0783
      35    C11     14.997380   18.185144   20.327567 C.3        1 MOL1         0.1043
      36    H17     15.874636   18.567384   19.789279 H          1 MOL1         0.0783
      37    O9      14.259787   19.293290   20.900454 O.3        1 MOL1        -0.3740
      38    C12     14.083907   17.493911   19.291169 C.3        1 MOL1         0.0138
      39    H18     14.662177   16.724884   18.761956 H          1 MOL1         0.0794
      40    H19     13.770610   18.237174   18.545728 H          1 MOL1         0.0794
      41    O10     12.940199   16.906569   19.918609 O.3        1 MOL1        -0.5486
      42    H20     12.481728   17.635628   20.392860 H          1 MOL1         0.3769
      43    C13     18.513193   23.946004   20.753410 C.3        1 MOL1         0.2972
      44    H21     18.914101   24.936584   20.502171 H          1 MOL1         0.0751
      45    O11     19.559855   23.032586   21.141114 O.3        1 MOL1        -0.3740
      46    C14     17.465761   24.036664   21.894153 C.3        1 MOL1         0.1003
      47    H22     16.638064   24.654847   21.522657 H          1 MOL1         0.0783
      48    O12     18.009508   24.652814   23.071073 O.3        1 MOL1        -0.5519
      49    H23     18.785517   24.106457   23.355837 H          1 MOL1         0.3769
      50    C15     16.897748   22.634453   22.226096 C.3        1 MOL1         0.1053
      51    H24     17.714017   22.025504   22.639869 H          1 MOL1         0.0783
      52    O13     15.857750   22.775571   23.200492 O.3        1 MOL1        -0.5519
      53    H25     16.185197   23.466003   23.821329 H          1 MOL1         0.3769
      54    C16     16.366837   21.925640   20.947566 C.3        1 MOL1         0.1018
      55    H26     15.410398   22.371213   20.643427 H          1 MOL1         0.0783
      56    C17     17.368695   22.021928   19.765423 C.3        1 MOL1         0.1043
      57    H27     18.215876   21.362905   19.986452 H          1 MOL1         0.0783
      58    O14     17.839848   23.383603   19.608338 O.3        1 MOL1        -0.3740
      59    C18     16.762691   21.571787   18.417662 C.3        1 MOL1         0.0138
      60    H28     16.428144   20.529588   18.504276 H          1 MOL1         0.0794
      61    H29     17.548091   21.600660   17.650594 H          1 MOL1         0.0794
      62    O15     15.668712   22.412998   18.040190 O.3        1 MOL1        -0.5486
      63    H30     16.014846   23.333039   18.056503 H          1 MOL1         0.3769
      64    C19     23.577387   22.797561   22.086553 C.3        1 MOL1         0.2972
      65    H31     24.625062   22.968491   22.365592 H          1 MOL1         0.0751
      66    O16     23.360039   21.453237   21.612907 O.3        1 MOL1        -0.3740
      67    C20     22.647409   23.060723   23.298401 C.3        1 MOL1         0.1003
      68    H32     22.758066   24.118684   23.569925 H          1 MOL1         0.0783
      69    O17     23.004447   22.250496   24.429080 O.3        1 MOL1        -0.5519
      70    H33     23.640441   21.563342   24.110103 H          1 MOL1         0.3769
      71    C21     21.169597   22.822400   22.913710 C.3        1 MOL1         0.1053
      72    H34     21.043377   21.751417   22.712392 H          1 MOL1         0.0783
      73    O18     20.335363   23.206897   24.010354 O.3        1 MOL1        -0.5519
      74    H35     20.764403   22.806144   24.800010 H          1 MOL1         0.3769
      75    C22     20.779765   23.615562   21.639264 C.3        1 MOL1         0.1018
      76    H36     20.646460   24.670720   21.913072 H          1 MOL1         0.0783
      77    C23     21.839692   23.490802   20.506177 C.3        1 MOL1         0.1043
      78    H37     21.768654   22.481008   20.079719 H          1 MOL1         0.0783
      79    O19     23.174487   23.702145   21.036059 O.3        1 MOL1        -0.3740
      80    C24     21.625312   24.495819   19.352775 C.3        1 MOL1         0.0138
      81    H38     20.669087   24.275992   18.859579 H          1 MOL1         0.0794
      82    H39     22.417785   24.351173   18.606304 H          1 MOL1         0.0794
      83    O20     21.634616   25.843422   19.832733 O.3        1 MOL1        -0.5486
      84    H40     22.500021   25.970008   20.281761 H          1 MOL1         0.3769
      85    C25     25.094060   17.770994   21.017951 C.3        1 MOL1         0.2972
      86    H41     25.731778   16.906189   20.793628 H          1 MOL1         0.0751
      87    O21     23.701341   17.389683   21.097511 O.3        1 MOL1        -0.3740
      88    C26     25.545148   18.473565   22.327847 C.3        1 MOL1         0.1003
      89    H42     26.563311   18.845775   22.154382 H          1 MOL1         0.0783
      90    O22     25.570497   17.579842   23.450065 O.3        1 MOL1        -0.5519
      91    H43     24.629768   17.330561   23.633257 H          1 MOL1         0.3769
      92    C27     24.641523   19.692419   22.628513 C.3        1 MOL1         0.1053
      93    H44     23.634602   19.320389   22.863427 H          1 MOL1         0.0783
      94    O23     25.170914   20.404470   23.750522 O.3        1 MOL1        -0.5519
      95    H45     25.440739   19.709007   24.392201 H          1 MOL1         0.3769
      96    C28     24.529953   20.639304   21.405491 C.3        1 MOL1         0.1018
      97    H46     25.442591   21.244615   21.322968 H          1 MOL1         0.0783
      98    C29     24.310890   19.884569   20.066420 C.3        1 MOL1         0.1043
      99    H47     23.274017   19.534020   20.025201 H          1 MOL1         0.0783
     100    O24     25.218053   18.757507   19.971876 O.3        1 MOL1        -0.3740
     101    C30     24.561388   20.796765   18.847966 C.3        1 MOL1         0.0138
     102    H48     25.617331   21.098083   18.831322 H          1 MOL1         0.0794
     103    H49     23.955246   21.707258   18.946905 H          1 MOL1         0.0794
     104    O25     24.216286   20.110319   17.643657 O.3        1 MOL1        -0.5486
     105    H50     24.683832   19.246151   17.678861 H          1 MOL1         0.3769
     106    C31     21.233812   14.116631   21.913586 C.3        1 MOL1         0.2972
     107    H51     20.848479   13.138866   22.229739 H          1 MOL1         0.0751
     108    O26     20.252442   14.850155   21.153871 O.3        1 MOL1        -0.3740
     109    C32     21.666145   14.953424   23.148609 C.3        1 MOL1         0.1003
     110    H52     22.442473   14.376013   23.667471 H          1 MOL1         0.0783
     111    O27     20.577559   15.187813   24.055835 O.3        1 MOL1        -0.5519
     112    H53     19.898209   14.492783   23.882602 H          1 MOL1         0.3769
     113    C33     22.283243   16.303586   22.718649 C.3        1 MOL1         0.1053
     114    H54     21.490730   16.910731   22.260455 H          1 MOL1         0.0783
     115    O28     22.791301   16.960997   23.883355 O.3        1 MOL1        -0.5519
     116    H55     22.063879   16.884797   24.541963 H          1 MOL1         0.3769
     117    C34     23.409600   16.099653   21.674582 C.3        1 MOL1         0.1018
     118    H56     24.284669   15.670270   22.179670 H          1 MOL1         0.0783
     119    C35     22.964617   15.157184   20.522220 C.3        1 MOL1         0.1043
     120    H57     22.209897   15.678312   19.918555 H          1 MOL1         0.0783
     121    O29     22.396655   13.942082   21.074340 O.3        1 MOL1        -0.3740
     122    C36     24.120838   14.752057   19.580789 C.3        1 MOL1         0.0138
     123    H58     24.492822   15.647864   19.065940 H          1 MOL1         0.0794
     124    H59     23.729099   14.072826   18.811821 H          1 MOL1         0.0794
     125    O30     25.182793   14.123585   20.304684 O.3        1 MOL1        -0.5486
     126    H60     24.784925   13.348405   20.760042 H          1 MOL1         0.3769
     127    C1      20.427392   19.520850   20.617119 C.3        1 MOL1        -0.1693
     128    H1      21.319170   19.076087   21.075346 H          1 MOL1         0.0829
     129    H2      20.125242   20.388839   21.210097 H          1 MOL1         0.0829
     130    C2      19.290681   18.502015   20.290911 C.3        1 MOL1        -0.1768
     131    H3      18.294920   18.944213   20.175329 H          1 MOL1         0.0829
     132    H4      19.218760   17.646184   20.970047 H          1 MOL1         0.0829
     133    C3      20.044450   18.259778   18.947377 C.3        1 MOL1         0.1211
     134    H5      20.863300   17.531289   19.015623 H          1 MOL1         0.0786
     135    C4      20.512907   19.740140   19.070812 C.3        1 MOL1        -0.1768
     136    H6      19.805211   20.470887   18.665112 H          1 MOL1         0.0829
     137    H7      21.503557   19.957945   18.660255 H          1 MOL1         0.0829
     138    O1      19.223878   17.999100   17.830682 O.3        1 MOL1        -0.5515
     139    H8      19.112559   17.023164   17.743170 H          1 MOL1         0.3773
@<TRIPOS>BOND
    1     1     2    1
    2     1     3    1
    3     1     4    1
    4     4     5    1
    5     4     6    1
    6     6     7    1
    7     4     8    1
    8     8     9    1
    9     8    10    1
   10    10    11    1
   11     8    12    1
   12    12    13    1
   13    12    14    1
   14    14    15    1
   15     1    16    1
   16    14    16    1
   17    14    17    1
   18    17    18    1
   19    17    19    1
   20    17    20    1
   21    20    21    1
   22    22    23    1
   23    22    24    1
   24    22    25    1
   25    25    26    1
   26    25    27    1
   27    27    28    1
   28    25    29    1
   29    29    30    1
   30    29    31    1
   31    31    32    1
   32     3    33    1
   33    29    33    1
   34    33    34    1
   35    33    35    1
   36    35    36    1
   37    22    37    1
   38    35    37    1
   39    35    38    1
   40    38    39    1
   41    38    40    1
   42    38    41    1
   43    41    42    1
   44    43    44    1
   45    43    45    1
   46    43    46    1
   47    46    47    1
   48    46    48    1
   49    48    49    1
   50    46    50    1
   51    50    51    1
   52    50    52    1
   53    52    53    1
   54    24    54    1
   55    50    54    1
   56    54    55    1
   57    54    56    1
   58    56    57    1
   59    43    58    1
   60    56    58    1
   61    56    59    1
   62    59    60    1
   63    59    61    1
   64    59    62    1
   65    62    63    1
   66    64    65    1
   67    64    66    1
   68    64    67    1
   69    67    68    1
   70    67    69    1
   71    69    70    1
   72    67    71    1
   73    71    72    1
   74    71    73    1
   75    73    74    1
   76    45    75    1
   77    71    75    1
   78    75    76    1
   79    75    77    1
   80    77    78    1
   81    64    79    1
   82    77    79    1
   83    77    80    1
   84    80    81    1
   85    80    82    1
   86    80    83    1
   87    83    84    1
   88    85    86    1
   89    85    87    1
   90    85    88    1
   91    88    89    1
   92    88    90    1
   93    90    91    1
   94    88    92    1
   95    92    93    1
   96    92    94    1
   97    94    95    1
   98    66    96    1
   99    92    96    1
  100    96    97    1
  101    96    98    1
  102    98    99    1
  103    85   100    1
  104    98   100    1
  105    98   101    1
  106   101   102    1
  107   101   103    1
  108   101   104    1
  109   104   105    1
  110   106   107    1
  111    12   108    1
  112   106   108    1
  113   106   109    1
  114   109   110    1
  115   109   111    1
  116   111   112    1
  117   109   113    1
  118   113   114    1
  119   113   115    1
  120   115   116    1
  121    87   117    1
  122   113   117    1
  123   117   118    1
  124   117   119    1
  125   119   120    1
  126   106   121    1
  127   119   121    1
  128   119   122    1
  129   122   123    1
  130   122   124    1
  131   122   125    1
  132   125   126    1
  133   127   128    1
  134   127   129    1
  135   127   130    1
  136   130   131    1
  137   130   132    1
  138   130   133    1
  139   133   134    1
  140   127   135    1
  141   133   135    1
  142   135   136    1
  143   135   137    1
  144   133   138    1
  145   138   139    1
@<TRIPOS>SUBSTRUCTURE
       1 MOL1            1 RESIDUE      1      MOL     
       2 MOL1          139 RESIDUE      1      MOL     
@<SCITEGIC>MOL_PROPERTY
VM2 Rank
SciTegic.value.IntegerValue
2

@<SCITEGIC>MOL_PROPERTY
Conf_Id
SciTegic.value.IntegerValue
25059

@<SCITEGIC>MOL_PROPERTY
Probability
SciTegic.value.DoubleValue
1.04

@<SCITEGIC>MOL_PROPERTY
Sum Probability
SciTegic.value.DoubleValue
2.61

@<SCITEGIC>MOL_PROPERTY
Delta G
SciTegic.value.DoubleValue
0.241

@<SCITEGIC>MOL_PROPERTY
G
SciTegic.value.DoubleValue
538.305

@<SCITEGIC>MOL_PROPERTY
E
SciTegic.value.DoubleValue
359.068

@<SCITEGIC>MOL_PROPERTY
-TS
SciTegic.value.DoubleValue
179.237

@<SCITEGIC>MOL_PROPERTY
U+W
SciTegic.value.DoubleValue
236.557

@<SCITEGIC>MOL_PROPERTY
U
SciTegic.value.DoubleValue
268.499

@<SCITEGIC>MOL_PROPERTY
W
SciTegic.value.DoubleValue
-31.942

@<SCITEGIC>MOL_PROPERTY
W(PB)
SciTegic.value.DoubleValue
-37.946

@<SCITEGIC>MOL_PROPERTY
W(SA)
SciTegic.value.DoubleValue
6.004

@<SCITEGIC>MOL_PROPERTY
Valence
SciTegic.value.DoubleValue
150.259

@<SCITEGIC>MOL_PROPERTY
Coulomb
SciTegic.value.DoubleValue
135.965

@<SCITEGIC>MOL_PROPERTY
VdW
SciTegic.value.DoubleValue
-17.725

@<SCITEGIC>MOL_PROPERTY
VdW6
SciTegic.value.DoubleValue
-164.087

@<SCITEGIC>MOL_PROPERTY
VdW12
SciTegic.value.DoubleValue
146.361

@<SCITEGIC>MOL_PROPERTY
Bond
SciTegic.value.DoubleValue
4.540

@<SCITEGIC>MOL_PROPERTY
Angle
SciTegic.value.DoubleValue
10.700

@<SCITEGIC>MOL_PROPERTY
Pdih
SciTegic.value.DoubleValue
135.018

@<SCITEGIC>MOL_PROPERTY
Idih
SciTegic.value.DoubleValue
0.000

@<SCITEGIC>MOL_PROPERTY
Tether
SciTegic.value.DoubleValue
0.000

@<TRIPOS>MOLECULE
CD_guest-s16_vm2_single.mol2 : vm2 host+ligand conformer 3
         139         145           2
SMALL
USER_CHARGES
 
@<TRIPOS>ATOM
       1    C1      16.414759   15.197577   20.618485 C.3        1 MOL1         0.2972
       2    H1      15.409771   15.063774   20.197401 H          1 MOL1         0.0751
       3    O1      16.611657   16.537126   21.110069 O.3        1 MOL1        -0.3740
       4    C2      16.667384   14.197245   21.772918 C.3        1 MOL1         0.1003
       5    H2      16.557614   13.188615   21.353743 H          1 MOL1         0.0783
       6    O2      15.708262   14.371654   22.828272 O.3        1 MOL1        -0.5519
       7    H3      15.711171   15.331064   23.076183 H          1 MOL1         0.3769
       8    C3      18.109161   14.323962   22.326855 C.3        1 MOL1         0.1053
       9    H4      18.173864   15.267458   22.883944 H          1 MOL1         0.0783
      10    O3      18.355120   13.225648   23.209991 O.3        1 MOL1        -0.5519
      11    H5      17.592312   13.213196   23.828601 H          1 MOL1         0.3769
      12    C4      19.186771   14.352800   21.205153 C.3        1 MOL1         0.1018
      13    H6      19.378041   13.328228   20.858623 H          1 MOL1         0.0783
      14    C5      18.778335   15.216453   19.978486 C.3        1 MOL1         0.1043
      15    H7      18.899373   16.278174   20.229665 H          1 MOL1         0.0783
      16    O4      17.406568   14.938877   19.608886 O.3        1 MOL1        -0.3740
      17    C6      19.631336   14.898278   18.732830 C.3        1 MOL1         0.0138
      18    H8      19.422186   13.870892   18.405628 H          1 MOL1         0.0794
      19    H9      20.694169   14.950631   18.987619 H          1 MOL1         0.0794
      20    O5      19.335835   15.825632   17.687303 O.3        1 MOL1        -0.5486
      21    H10     18.360222   15.802177   17.571097 H          1 MOL1         0.3769
      22    C7      14.713311   20.196487   21.467438 C.3        1 MOL1         0.2972
      23    H11     14.000892   21.027758   21.543693 H          1 MOL1         0.0751
      24    O6      16.074964   20.664774   21.372416 O.3        1 MOL1        -0.3740
      25    C8      14.596266   19.281935   22.712495 C.3        1 MOL1         0.1003
      26    H12     13.573463   18.883868   22.734399 H          1 MOL1         0.0783
      27    O7      14.840456   20.019655   23.920703 O.3        1 MOL1        -0.5519
      28    H13     15.343176   20.834983   23.670920 H          1 MOL1         0.3769
      29    C9      15.570475   18.086130   22.605854 C.3        1 MOL1         0.1053
      30    H14     16.588225   18.481519   22.659260 H          1 MOL1         0.0783
      31    O8      15.344581   17.183529   23.693062 O.3        1 MOL1        -0.5519
      32    H15     15.272180   17.760178   24.486500 H          1 MOL1         0.3769
      33    C10     15.424377   17.340624   21.258355 C.3        1 MOL1         0.1018
      34    H16     14.515000   16.726259   21.299786 H          1 MOL1         0.0783
      35    C11     15.361786   18.309979   20.043016 C.3        1 MOL1         0.1043
      36    H17     16.364897   18.726074   19.882325 H          1 MOL1         0.0783
      37    O9      14.427553   19.386940   20.306832 O.3        1 MOL1        -0.3740
      38    C12     14.925626   17.623283   18.729588 C.3        1 MOL1         0.0138
      39    H18     15.685515   16.885430   18.440655 H          1 MOL1         0.0794
      40    H19     14.885029   18.378199   17.932942 H          1 MOL1         0.0794
      41    O10     13.652292   16.988222   18.876618 O.3        1 MOL1        -0.5486
      42    H20     13.024131   17.692238   19.152996 H          1 MOL1         0.3769
      43    C13     18.434246   24.047617   20.912631 C.3        1 MOL1         0.2972
      44    H21     18.846229   25.041662   20.695376 H          1 MOL1         0.0751
      45    O11     19.478549   23.089878   21.182418 O.3        1 MOL1        -0.3740
      46    C14     17.455285   24.096126   22.116098 C.3        1 MOL1         0.1003
      47    H22     16.622274   24.751234   21.829645 H          1 MOL1         0.0783
      48    O12     18.080158   24.630920   23.292285 O.3        1 MOL1        -0.5519
      49    H23     18.851588   24.046737   23.505341 H          1 MOL1         0.3769
      50    C15     16.877193   22.687844   22.396613 C.3        1 MOL1         0.1053
      51    H24     17.704368   22.042457   22.719823 H          1 MOL1         0.0783
      52    O13     15.893186   22.769436   23.432060 O.3        1 MOL1        -0.5519
      53    H25     16.281916   23.369147   24.107812 H          1 MOL1         0.3769
      54    C16     16.250302   22.073728   21.118773 C.3        1 MOL1         0.1018
      55    H26     15.296142   22.576033   20.911754 H          1 MOL1         0.0783
      56    C17     17.172883   22.213676   19.876373 C.3        1 MOL1         0.1043
      57    H27     18.009527   21.512253   19.980946 H          1 MOL1         0.0783
      58    O14     17.682087   23.568795   19.777231 O.3        1 MOL1        -0.3740
      59    C18     16.447213   21.890341   18.551494 C.3        1 MOL1         0.0138
      60    H28     16.068822   20.860685   18.590018 H          1 MOL1         0.0794
      61    H29     17.173235   21.944040   17.729351 H          1 MOL1         0.0794
      62    O15     15.369326   22.802275   18.320609 O.3        1 MOL1        -0.5486
      63    H30     15.759612   23.703203   18.372736 H          1 MOL1         0.3769
      64    C19     23.520955   22.657383   21.923423 C.3        1 MOL1         0.2972
      65    H31     24.586512   22.778359   22.157200 H          1 MOL1         0.0751
      66    O16     23.237408   21.347065   21.389411 O.3        1 MOL1        -0.3740
      67    C20     22.661523   22.880383   23.193634 C.3        1 MOL1         0.1003
      68    H32     22.836033   23.911147   23.528647 H          1 MOL1         0.0783
      69    O17     23.026331   21.974313   24.247445 O.3        1 MOL1        -0.5519
      70    H33     23.858276   21.520727   23.967414 H          1 MOL1         0.3769
      71    C21     21.160153   22.727448   22.863062 C.3        1 MOL1         0.1053
      72    H34     20.992892   21.679368   22.592574 H          1 MOL1         0.0783
      73    O18     20.390473   23.058813   24.022214 O.3        1 MOL1        -0.5519
      74    H35     20.842646   22.588127   24.758432 H          1 MOL1         0.3769
      75    C22     20.737126   23.608883   21.659863 C.3        1 MOL1         0.1018
      76    H36     20.649604   24.649265   22.000355 H          1 MOL1         0.0783
      77    C23     21.740077   23.516492   20.473715 C.3        1 MOL1         0.1043
      78    H37     21.607821   22.539551   19.989926 H          1 MOL1         0.0783
      79    O19     23.105393   23.638563   20.948947 O.3        1 MOL1        -0.3740
      80    C24     21.515448   24.602461   19.398066 C.3        1 MOL1         0.0138
      81    H38     20.527828   24.454820   18.941178 H          1 MOL1         0.0794
      82    H39     22.264225   24.474589   18.604905 H          1 MOL1         0.0794
      83    O20     21.607082   25.914513   19.960811 O.3        1 MOL1        -0.5486
      84    H40     22.497744   25.976167   20.372610 H          1 MOL1         0.3769
      85    C25     25.077131   17.656879   20.897461 C.3        1 MOL1         0.2972
      86    H41     25.731644   16.814934   20.637216 H          1 MOL1         0.0751
      87    O21     23.774613   17.209449   21.317278 O.3        1 MOL1        -0.3740
      88    C26     25.697282   18.530199   22.018829 C.3        1 MOL1         0.1003
      89    H42     26.636757   18.939307   21.624824 H          1 MOL1         0.0783
      90    O22     25.987330   17.761266   23.195711 O.3        1 MOL1        -0.5519
      91    H43     25.139844   17.340775   23.490257 H          1 MOL1         0.3769
      92    C27     24.768321   19.722342   22.360451 C.3        1 MOL1         0.1053
      93    H44     23.850049   19.322054   22.812962 H          1 MOL1         0.0783
      94    O23     25.438357   20.575525   23.294683 O.3        1 MOL1        -0.5519
      95    H45     25.886487   19.962395   23.921219 H          1 MOL1         0.3769
      96    C28     24.374161   20.515357   21.082220 C.3        1 MOL1         0.1018
      97    H46     25.228229   21.116780   20.743081 H          1 MOL1         0.0783
      98    C29     23.930450   19.588075   19.918902 C.3        1 MOL1         0.1043
      99    H47     22.935836   19.180990   20.146716 H          1 MOL1         0.0783
     100    O24     24.893420   18.515973   19.752656 O.3        1 MOL1        -0.3740
     101    C30     23.847994   20.349546   18.579499 C.3        1 MOL1         0.0138
     102    H48     24.848784   20.709018   18.304993 H          1 MOL1         0.0794
     103    H49     23.199514   21.227291   18.700303 H          1 MOL1         0.0794
     104    O25     23.325877   19.494160   17.561306 O.3        1 MOL1        -0.5486
     105    H50     23.860904   18.670035   17.597892 H          1 MOL1         0.3769
     106    C31     21.375210   14.022437   22.250729 C.3        1 MOL1         0.2972
     107    H51     20.922195   13.064270   22.536123 H          1 MOL1         0.0751
     108    O26     20.375027   14.949213   21.774169 O.3        1 MOL1        -0.3740
     109    C32     22.121604   14.627277   23.467513 C.3        1 MOL1         0.1003
     110    H52     22.897207   13.908011   23.760489 H          1 MOL1         0.0783
     111    O27     21.231410   14.833756   24.573054 O.3        1 MOL1        -0.5519
     112    H53     20.623553   15.566707   24.305448 H          1 MOL1         0.3769
     113    C33     22.815839   15.956956   23.100307 C.3        1 MOL1         0.1053
     114    H54     22.030201   16.696011   22.926018 H          1 MOL1         0.0783
     115    O28     23.636691   16.383871   24.191790 O.3        1 MOL1        -0.5519
     116    H55     23.053824   16.334861   24.982126 H          1 MOL1         0.3769
     117    C34     23.658549   15.858839   21.805936 C.3        1 MOL1         0.1018
     118    H56     24.634528   15.415679   22.044839 H          1 MOL1         0.0783
     119    C35     22.952577   15.050777   20.681810 C.3        1 MOL1         0.1043
     120    H57     22.171317   15.695758   20.262333 H          1 MOL1         0.0783
     121    O29     22.351381   13.836494   21.202736 O.3        1 MOL1        -0.3740
     122    C36     23.898609   14.654783   19.526946 C.3        1 MOL1         0.0138
     123    H58     24.271552   15.566022   19.040787 H          1 MOL1         0.0794
     124    H59     23.325070   14.095360   18.775792 H          1 MOL1         0.0794
     125    O30     24.992895   13.867062   20.004214 O.3        1 MOL1        -0.5486
     126    H60     24.596208   13.087749   20.453769 H          1 MOL1         0.3769
     127    C1      19.400067   19.551817   21.530680 C.3        1 MOL1        -0.1693
     128    H1      18.552439   19.244515   20.904873 H          1 MOL1         0.0829
     129    H2      19.833288   20.463572   21.108519 H          1 MOL1         0.0829
     130    C2      20.413768   18.412340   21.864410 C.3        1 MOL1        -0.1768
     131    H3      20.584526   17.668915   21.079646 H          1 MOL1         0.0829
     132    H4      21.384895   18.764322   22.234331 H          1 MOL1         0.0829
     133    C3      19.391209   18.020718   22.976128 C.3        1 MOL1         0.1211
     134    H5      18.542001   17.436641   22.603147 H          1 MOL1         0.0786
     135    C4      19.115704   19.550825   23.071145 C.3        1 MOL1        -0.1768
     136    H6      19.841059   20.099555   23.683246 H          1 MOL1         0.0829
     137    H7      18.110244   19.846208   23.384201 H          1 MOL1         0.0829
     138    O1      19.917956   17.429935   24.141175 O.3        1 MOL1        -0.5515
     139    H8      19.266981   17.585855   24.855605 H          1 MOL1         0.3773
@<TRIPOS>BOND
    1     1     2    1
    2     1     3    1
    3     1     4    1
    4     4     5    1
    5     4     6    1
    6     6     7    1
    7     4     8    1
    8     8     9    1
    9     8    10    1
   10    10    11    1
   11     8    12    1
   12    12    13    1
   13    12    14    1
   14    14    15    1
   15     1    16    1
   16    14    16    1
   17    14    17    1
   18    17    18    1
   19    17    19    1
   20    17    20    1
   21    20    21    1
   22    22    23    1
   23    22    24    1
   24    22    25    1
   25    25    26    1
   26    25    27    1
   27    27    28    1
   28    25    29    1
   29    29    30    1
   30    29    31    1
   31    31    32    1
   32     3    33    1
   33    29    33    1
   34    33    34    1
   35    33    35    1
   36    35    36    1
   37    22    37    1
   38    35    37    1
   39    35    38    1
   40    38    39    1
   41    38    40    1
   42    38    41    1
   43    41    42    1
   44    43    44    1
   45    43    45    1
   46    43    46    1
   47    46    47    1
   48    46    48    1
   49    48    49    1
   50    46    50    1
   51    50    51    1
   52    50    52    1
   53    52    53    1
   54    24    54    1
   55    50    54    1
   56    54    55    1
   57    54    56    1
   58    56    57    1
   59    43    58    1
   60    56    58    1
   61    56    59    1
   62    59    60    1
   63    59    61    1
   64    59    62    1
   65    62    63    1
   66    64    65    1
   67    64    66    1
   68    64    67    1
   69    67    68    1
   70    67    69    1
   71    69    70    1
   72    67    71    1
   73    71    72    1
   74    71    73    1
   75    73    74    1
   76    45    75    1
   77    71    75    1
   78    75    76    1
   79    75    77    1
   80    77    78    1
   81    64    79    1
   82    77    79    1
   83    77    80    1
   84    80    81    1
   85    80    82    1
   86    80    83    1
   87    83    84    1
   88    85    86    1
   89    85    87    1
   90    85    88    1
   91    88    89    1
   92    88    90    1
   93    90    91    1
   94    88    92    1
   95    92    93    1
   96    92    94    1
   97    94    95    1
   98    66    96    1
   99    92    96    1
  100    96    97    1
  101    96    98    1
  102    98    99    1
  103    85   100    1
  104    98   100    1
  105    98   101    1
  106   101   102    1
  107   101   103    1
  108   101   104    1
  109   104   105    1
  110   106   107    1
  111    12   108    1
  112   106   108    1
  113   106   109    1
  114   109   110    1
  115   109   111    1
  116   111   112    1
  117   109   113    1
  118   113   114    1
  119   113   115    1
  120   115   116    1
  121    87   117    1
  122   113   117    1
  123   117   118    1
  124   117   119    1
  125   119   120    1
  126   106   121    1
  127   119   121    1
  128   119   122    1
  129   122   123    1
  130   122   124    1
  131   122   125    1
  132   125   126    1
  133   127   128    1
  134   127   129    1
  135   127   130    1
  136   130   131    1
  137   130   132    1
  138   130   133    1
  139   133   134    1
  140   127   135    1
  141   133   135    1
  142   135   136    1
  143   135   137    1
  144   133   138    1
  145   138   139    1
@<TRIPOS>SUBSTRUCTURE
       1 MOL1            1 RESIDUE      1      MOL     
       2 MOL1          139 RESIDUE      1      MOL     
@<SCITEGIC>MOL_PROPERTY
VM2 Rank
SciTegic.value.IntegerValue
3

@<SCITEGIC>MOL_PROPERTY
Conf_Id
SciTegic.value.IntegerValue
12593

@<SCITEGIC>MOL_PROPERTY
Probability
SciTegic.value.DoubleValue
1.03

@<SCITEGIC>MOL_PROPERTY
Sum Probability
SciTegic.value.DoubleValue
3.64

@<SCITEGIC>MOL_PROPERTY
Delta G
SciTegic.value.DoubleValue
0.247

@<SCITEGIC>MOL_PROPERTY
G
SciTegic.value.DoubleValue
538.310

@<SCITEGIC>MOL_PROPERTY
E
SciTegic.value.DoubleValue
359.998

@<SCITEGIC>MOL_PROPERTY
-TS
SciTegic.value.DoubleValue
178.312

@<SCITEGIC>MOL_PROPERTY
U+W
SciTegic.value.DoubleValue
237.487

@<SCITEGIC>MOL_PROPERTY
U
SciTegic.value.DoubleValue
271.599

@<SCITEGIC>MOL_PROPERTY
W
SciTegic.value.DoubleValue
-34.112

@<SCITEGIC>MOL_PROPERTY
W(PB)
SciTegic.value.DoubleValue
-40.158

@<SCITEGIC>MOL_PROPERTY
W(SA)
SciTegic.value.DoubleValue
6.046

@<SCITEGIC>MOL_PROPERTY
Valence
SciTegic.value.DoubleValue
150.860

@<SCITEGIC>MOL_PROPERTY
Coulomb
SciTegic.value.DoubleValue
141.424

@<SCITEGIC>MOL_PROPERTY
VdW
SciTegic.value.DoubleValue
-20.686

@<SCITEGIC>MOL_PROPERTY
VdW6
SciTegic.value.DoubleValue
-164.294

@<SCITEGIC>MOL_PROPERTY
VdW12
SciTegic.value.DoubleValue
143.608

@<SCITEGIC>MOL_PROPERTY
Bond
SciTegic.value.DoubleValue
4.438

@<SCITEGIC>MOL_PROPERTY
Angle
SciTegic.value.DoubleValue
10.991

@<SCITEGIC>MOL_PROPERTY
Pdih
SciTegic.value.DoubleValue
135.431

@<SCITEGIC>MOL_PROPERTY
Idih
SciTegic.value.DoubleValue
0.000

@<SCITEGIC>MOL_PROPERTY
Tether
SciTegic.value.DoubleValue
0.000

@<TRIPOS>MOLECULE
CD_guest-s16_vm2_single.mol2 : vm2 host+ligand conformer 4
         139         145           2
SMALL
USER_CHARGES
 
@<TRIPOS>ATOM
       1    C1      16.254871   15.181782   20.620080 C.3        1 MOL1         0.2972
       2    H1      15.200974   15.042270   20.346869 H          1 MOL1         0.0751
       3    O1      16.555784   16.572631   20.859315 O.3        1 MOL1        -0.3740
       4    C2      16.630851   14.326548   21.860715 C.3        1 MOL1         0.1003
       5    H2      16.490061   13.275550   21.576333 H          1 MOL1         0.0783
       6    O2      15.794648   14.611065   22.991845 O.3        1 MOL1        -0.5519
       7    H3      15.987324   15.544837   23.260322 H          1 MOL1         0.3769
       8    C3      18.121337   14.519476   22.230784 C.3        1 MOL1         0.1053
       9    H4      18.255289   15.554668   22.575177 H          1 MOL1         0.0783
      10    O3      18.456854   13.608163   23.283042 O.3        1 MOL1        -0.5519
      11    H5      17.679176   13.618807   23.886434 H          1 MOL1         0.3769
      12    C4      19.049110   14.296419   21.005227 C.3        1 MOL1         0.1018
      13    H6      19.149253   13.220667   20.808761 H          1 MOL1         0.0783
      14    C5      18.523234   14.993295   19.719519 C.3        1 MOL1         0.1043
      15    H7      18.692930   16.072615   19.817252 H          1 MOL1         0.0783
      16    O4      17.106167   14.737276   19.543547 O.3        1 MOL1        -0.3740
      17    C6      19.250100   14.519069   18.441784 C.3        1 MOL1         0.0138
      18    H8      20.324895   14.718745   18.545927 H          1 MOL1         0.0794
      19    H9      18.885892   15.108642   17.589797 H          1 MOL1         0.0794
      20    O5      19.027810   13.124775   18.211121 O.3        1 MOL1        -0.5486
      21    H10     18.052290   13.001573   18.210303 H          1 MOL1         0.3769
      22    C7      14.881729   20.243720   21.830375 C.3        1 MOL1         0.2972
      23    H11     14.230357   21.064852   22.156043 H          1 MOL1         0.0751
      24    O6      16.051236   20.736213   21.144416 O.3        1 MOL1        -0.3740
      25    C8      15.310603   19.375810   23.045180 C.3        1 MOL1         0.1003
      26    H12     14.390474   18.972119   23.487541 H          1 MOL1         0.0783
      27    O7      16.009321   20.137054   24.042438 O.3        1 MOL1        -0.5519
      28    H13     15.820428   21.090546   23.869130 H          1 MOL1         0.3769
      29    C9      16.185717   18.183906   22.596888 C.3        1 MOL1         0.1053
      30    H14     17.140575   18.583851   22.230748 H          1 MOL1         0.0783
      31    O8      16.417254   17.335014   23.725369 O.3        1 MOL1        -0.5519
      32    H15     16.680913   17.952459   24.444899 H          1 MOL1         0.3769
      33    C10     15.519847   17.382858   21.449932 C.3        1 MOL1         0.1018
      34    H16     14.709934   16.772030   21.869799 H          1 MOL1         0.0783
      35    C11     14.954908   18.305369   20.332050 C.3        1 MOL1         0.1043
      36    H17     15.798705   18.729194   19.771684 H          1 MOL1         0.0783
      37    O9      14.172531   19.377873   20.917524 O.3        1 MOL1        -0.3740
      38    C12     14.054587   17.561103   19.321045 C.3        1 MOL1         0.0138
      39    H18     14.659845   16.820584   18.781461 H          1 MOL1         0.0794
      40    H19     13.684820   18.282233   18.579837 H          1 MOL1         0.0794
      41    O10     12.958635   16.917819   19.978057 O.3        1 MOL1        -0.5486
      42    H20     12.472936   17.624071   20.459628 H          1 MOL1         0.3769
      43    C13     18.357557   24.127365   20.802124 C.3        1 MOL1         0.2972
      44    H21     18.806221   25.112075   20.617912 H          1 MOL1         0.0751
      45    O11     19.368941   23.113991   20.998507 O.3        1 MOL1        -0.3740
      46    C14     17.390201   24.168744   22.014344 C.3        1 MOL1         0.1003
      47    H22     16.580550   24.861269   21.749269 H          1 MOL1         0.0783
      48    O12     18.029336   24.646694   23.206955 O.3        1 MOL1        -0.5519
      49    H23     18.705413   23.967775   23.458272 H          1 MOL1         0.3769
      50    C15     16.758909   22.777705   22.263290 C.3        1 MOL1         0.1053
      51    H24     17.552827   22.105131   22.617417 H          1 MOL1         0.0783
      52    O13     15.747893   22.914832   23.268378 O.3        1 MOL1        -0.5519
      53    H25     16.125763   23.543530   23.925183 H          1 MOL1         0.3769
      54    C16     16.155356   22.165305   20.966599 C.3        1 MOL1         0.1018
      55    H26     15.173902   22.615737   20.767098 H          1 MOL1         0.0783
      56    C17     17.057437   22.370596   19.718376 C.3        1 MOL1         0.1043
      57    H27     17.897035   21.670914   19.772680 H          1 MOL1         0.0783
      58    O14     17.556345   23.730023   19.670970 O.3        1 MOL1        -0.3740
      59    C18     16.307043   22.093539   18.401650 C.3        1 MOL1         0.0138
      60    H28     15.502896   22.830942   18.276229 H          1 MOL1         0.0794
      61    H29     15.845751   21.097793   18.451816 H          1 MOL1         0.0794
      62    O15     17.224034   22.153116   17.307457 O.3        1 MOL1        -0.5486
      63    H30     17.630774   23.048283   17.341852 H          1 MOL1         0.3769
      64    C19     23.333255   22.553352   22.116697 C.3        1 MOL1         0.2972
      65    H31     24.354364   22.672742   22.500687 H          1 MOL1         0.0751
      66    O16     23.191895   21.336624   21.356152 O.3        1 MOL1        -0.3740
      67    C20     22.313641   22.543940   23.286531 C.3        1 MOL1         0.1003
      68    H32     22.419142   23.503161   23.809991 H          1 MOL1         0.0783
      69    O17     22.569335   21.475757   24.212741 O.3        1 MOL1        -0.5519
      70    H33     23.505800   21.192264   24.079354 H          1 MOL1         0.3769
      71    C21     20.863881   22.443411   22.758095 C.3        1 MOL1         0.1053
      72    H34     20.733394   21.450290   22.306239 H          1 MOL1         0.0783
      73    O18     19.963277   22.599900   23.858969 O.3        1 MOL1        -0.5519
      74    H35     20.314101   21.994493   24.550772 H          1 MOL1         0.3769
      75    C22     20.578123   23.512997   21.673575 C.3        1 MOL1         0.1018
      76    H36     20.472828   24.491299   22.160661 H          1 MOL1         0.0783
      77    C23     21.703395   23.579998   20.603792 C.3        1 MOL1         0.1043
      78    H37     21.653554   22.670321   19.990701 H          1 MOL1         0.0783
      79    O19     22.996659   23.660457   21.253028 O.3        1 MOL1        -0.3740
      80    C24     21.575922   24.791678   19.653645 C.3        1 MOL1         0.0138
      81    H38     20.654875   24.688602   19.064689 H          1 MOL1         0.0794
      82    H39     22.417561   24.777302   18.948182 H          1 MOL1         0.0794
      83    O20     21.559378   26.022693   20.382326 O.3        1 MOL1        -0.5486
      84    H40     22.392974   26.045797   20.903084 H          1 MOL1         0.3769
      85    C25     25.082712   17.713851   20.840089 C.3        1 MOL1         0.2972
      86    H41     25.736227   16.862449   20.609830 H          1 MOL1         0.0751
      87    O21     23.719833   17.291286   21.061370 O.3        1 MOL1        -0.3740
      88    C26     25.598348   18.503566   22.071154 C.3        1 MOL1         0.1003
      89    H42     26.573414   18.925801   21.794829 H          1 MOL1         0.0783
      90    O22     25.772937   17.663043   23.220975 O.3        1 MOL1        -0.5519
      91    H43     24.876246   17.322536   23.467970 H          1 MOL1         0.3769
      92    C27     24.647069   19.681243   22.393365 C.3        1 MOL1         0.1053
      93    H44     23.682635   19.261356   22.712447 H          1 MOL1         0.0783
      94    O23     25.216345   20.452366   23.457770 O.3        1 MOL1        -0.5519
      95    H45     25.610686   19.788604   24.068809 H          1 MOL1         0.3769
      96    C28     24.396194   20.570887   21.141179 C.3        1 MOL1         0.1018
      97    H46     25.261001   21.227380   20.976967 H          1 MOL1         0.0783
      98    C29     24.141051   19.743629   19.850009 C.3        1 MOL1         0.1043
      99    H47     23.121863   19.345793   19.899301 H          1 MOL1         0.0783
     100    O24     25.080151   18.644583   19.738461 O.3        1 MOL1        -0.3740
     101    C30     24.247830   20.590950   18.563125 C.3        1 MOL1         0.0138
     102    H48     23.524952   21.416058   18.616354 H          1 MOL1         0.0794
     103    H49     23.971232   19.964876   17.704319 H          1 MOL1         0.0794
     104    O25     25.572287   21.105037   18.395576 O.3        1 MOL1        -0.5486
     105    H50     26.173109   20.327647   18.435173 H          1 MOL1         0.3769
     106    C31     21.302603   14.055511   21.942882 C.3        1 MOL1         0.2972
     107    H51     20.873441   13.087457   22.231880 H          1 MOL1         0.0751
     108    O26     20.325449   14.899259   21.300544 O.3        1 MOL1        -0.3740
     109    C32     21.871174   14.785884   23.187557 C.3        1 MOL1         0.1003
     110    H52     22.657080   14.142839   23.604775 H          1 MOL1         0.0783
     111    O27     20.863942   15.001297   24.188952 O.3        1 MOL1        -0.5519
     112    H53     20.057824   14.505081   23.904927 H          1 MOL1         0.3769
     113    C33     22.517006   16.134621   22.794785 C.3        1 MOL1         0.1053
     114    H54     21.715412   16.810146   22.474136 H          1 MOL1         0.0783
     115    O28     23.169892   16.682673   23.943330 O.3        1 MOL1        -0.5519
     116    H55     22.508133   16.596524   24.666559 H          1 MOL1         0.3769
     117    C34     23.522448   15.978365   21.623623 C.3        1 MOL1         0.1018
     118    H56     24.456606   15.554872   22.015806 H          1 MOL1         0.0783
     119    C35     22.975597   15.079153   20.478484 C.3        1 MOL1         0.1043
     120    H57     22.204441   15.643366   19.937049 H          1 MOL1         0.0783
     121    O29     22.398115   13.865481   21.022522 O.3        1 MOL1        -0.3740
     122    C36     24.056272   14.670020   19.453173 C.3        1 MOL1         0.0138
     123    H58     24.426929   15.570642   18.945834 H          1 MOL1         0.0794
     124    H59     23.593702   14.031475   18.688623 H          1 MOL1         0.0794
     125    O30     25.137796   13.981340   20.087621 O.3        1 MOL1        -0.5486
     126    H60     24.740653   13.205669   20.542917 H          1 MOL1         0.3769
     127    C1      20.373225   18.470865   20.406088 C.3        1 MOL1        -0.1693
     128    H1      21.088162   19.123556   20.922987 H          1 MOL1         0.0829
     129    H2      20.303172   17.525314   20.950678 H          1 MOL1         0.0829
     130    C2      20.567748   18.359140   18.859167 C.3        1 MOL1        -0.1768
     131    H3      21.594297   18.432429   18.487540 H          1 MOL1         0.0829
     132    H4      20.094004   17.484823   18.398735 H          1 MOL1         0.0829
     133    C3      19.717378   19.662620   18.773202 C.3        1 MOL1         0.1211
     134    H5      20.297137   20.584181   18.918287 H          1 MOL1         0.0786
     135    C4      19.009397   19.146484   20.062550 C.3        1 MOL1        -0.1768
     136    H6      18.186137   18.449490   19.873568 H          1 MOL1         0.0829
     137    H7      18.674765   19.904813   20.776720 H          1 MOL1         0.0829
     138    O1      18.905189   19.748480   17.623800 O.3        1 MOL1        -0.5515
     139    H8      18.370959   20.576607   17.668519 H          1 MOL1         0.3773
@<TRIPOS>BOND
    1     1     2    1
    2     1     3    1
    3     1     4    1
    4     4     5    1
    5     4     6    1
    6     6     7    1
    7     4     8    1
    8     8     9    1
    9     8    10    1
   10    10    11    1
   11     8    12    1
   12    12    13    1
   13    12    14    1
   14    14    15    1
   15     1    16    1
   16    14    16    1
   17    14    17    1
   18    17    18    1
   19    17    19    1
   20    17    20    1
   21    20    21    1
   22    22    23    1
   23    22    24    1
   24    22    25    1
   25    25    26    1
   26    25    27    1
   27    27    28    1
   28    25    29    1
   29    29    30    1
   30    29    31    1
   31    31    32    1
   32     3    33    1
   33    29    33    1
   34    33    34    1
   35    33    35    1
   36    35    36    1
   37    22    37    1
   38    35    37    1
   39    35    38    1
   40    38    39    1
   41    38    40    1
   42    38    41    1
   43    41    42    1
   44    43    44    1
   45    43    45    1
   46    43    46    1
   47    46    47    1
   48    46    48    1
   49    48    49    1
   50    46    50    1
   51    50    51    1
   52    50    52    1
   53    52    53    1
   54    24    54    1
   55    50    54    1
   56    54    55    1
   57    54    56    1
   58    56    57    1
   59    43    58    1
   60    56    58    1
   61    56    59    1
   62    59    60    1
   63    59    61    1
   64    59    62    1
   65    62    63    1
   66    64    65    1
   67    64    66    1
   68    64    67    1
   69    67    68    1
   70    67    69    1
   71    69    70    1
   72    67    71    1
   73    71    72    1
   74    71    73    1
   75    73    74    1
   76    45    75    1
   77    71    75    1
   78    75    76    1
   79    75    77    1
   80    77    78    1
   81    64    79    1
   82    77    79    1
   83    77    80    1
   84    80    81    1
   85    80    82    1
   86    80    83    1
   87    83    84    1
   88    85    86    1
   89    85    87    1
   90    85    88    1
   91    88    89    1
   92    88    90    1
   93    90    91    1
   94    88    92    1
   95    92    93    1
   96    92    94    1
   97    94    95    1
   98    66    96    1
   99    92    96    1
  100    96    97    1
  101    96    98    1
  102    98    99    1
  103    85   100    1
  104    98   100    1
  105    98   101    1
  106   101   102    1
  107   101   103    1
  108   101   104    1
  109   104   105    1
  110   106   107    1
  111    12   108    1
  112   106   108    1
  113   106   109    1
  114   109   110    1
  115   109   111    1
  116   111   112    1
  117   109   113    1
  118   113   114    1
  119   113   115    1
  120   115   116    1
  121    87   117    1
  122   113   117    1
  123   117   118    1
  124   117   119    1
  125   119   120    1
  126   106   121    1
  127   119   121    1
  128   119   122    1
  129   122   123    1
  130   122   124    1
  131   122   125    1
  132   125   126    1
  133   127   128    1
  134   127   129    1
  135   127   130    1
  136   130   131    1
  137   130   132    1
  138   130   133    1
  139   133   134    1
  140   127   135    1
  141   133   135    1
  142   135   136    1
  143   135   137    1
  144   133   138    1
  145   138   139    1
@<TRIPOS>SUBSTRUCTURE
       1 MOL1            1 RESIDUE      1      MOL     
       2 MOL1          139 RESIDUE      1      MOL     
@<SCITEGIC>MOL_PROPERTY
VM2 Rank
SciTegic.value.IntegerValue
4

@<SCITEGIC>MOL_PROPERTY
Conf_Id
SciTegic.value.IntegerValue
22236

@<SCITEGIC>MOL_PROPERTY
Probability
SciTegic.value.DoubleValue
0.99

@<SCITEGIC>MOL_PROPERTY
Sum Probability
SciTegic.value.DoubleValue
4.64

@<SCITEGIC>MOL_PROPERTY
Delta G
SciTegic.value.DoubleValue
0.271

@<SCITEGIC>MOL_PROPERTY
G
SciTegic.value.DoubleValue
538.335

@<SCITEGIC>MOL_PROPERTY
E
SciTegic.value.DoubleValue
359.056

@<SCITEGIC>MOL_PROPERTY
-TS
SciTegic.value.DoubleValue
179.279

@<SCITEGIC>MOL_PROPERTY
U+W
SciTegic.value.DoubleValue
236.544

@<SCITEGIC>MOL_PROPERTY
U
SciTegic.value.DoubleValue
268.482

@<SCITEGIC>MOL_PROPERTY
W
SciTegic.value.DoubleValue
-31.938

@<SCITEGIC>MOL_PROPERTY
W(PB)
SciTegic.value.DoubleValue
-38.043

@<SCITEGIC>MOL_PROPERTY
W(SA)
SciTegic.value.DoubleValue
6.105

@<SCITEGIC>MOL_PROPERTY
Valence
SciTegic.value.DoubleValue
149.429

@<SCITEGIC>MOL_PROPERTY
Coulomb
SciTegic.value.DoubleValue
135.228

@<SCITEGIC>MOL_PROPERTY
VdW
SciTegic.value.DoubleValue
-16.174

@<SCITEGIC>MOL_PROPERTY
VdW6
SciTegic.value.DoubleValue
-163.408

@<SCITEGIC>MOL_PROPERTY
VdW12
SciTegic.value.DoubleValue
147.233

@<SCITEGIC>MOL_PROPERTY
Bond
SciTegic.value.DoubleValue
4.638

@<SCITEGIC>MOL_PROPERTY
Angle
SciTegic.value.DoubleValue
11.279

@<SCITEGIC>MOL_PROPERTY
Pdih
SciTegic.value.DoubleValue
133.512

@<SCITEGIC>MOL_PROPERTY
Idih
SciTegic.value.DoubleValue
0.000

@<SCITEGIC>MOL_PROPERTY
Tether
SciTegic.value.DoubleValue
0.000

@<TRIPOS>MOLECULE
CD_guest-s16_vm2_single.mol2 : vm2 host+ligand conformer 5
         139         145           2
SMALL
USER_CHARGES
 
@<TRIPOS>ATOM
       1    C1      16.233811   15.142792   20.657529 C.3        1 MOL1         0.2972
       2    H1      15.185470   14.988705   20.370902 H          1 MOL1         0.0751
       3    O1      16.500372   16.527612   20.965451 O.3        1 MOL1        -0.3740
       4    C2      16.624763   14.251070   21.866583 C.3        1 MOL1         0.1003
       5    H2      16.513728   13.207932   21.542870 H          1 MOL1         0.0783
       6    O2      15.772615   14.472431   22.999803 O.3        1 MOL1        -0.5519
       7    H3      15.899955   15.414629   23.278007 H          1 MOL1         0.3769
       8    C3      18.109003   14.471454   22.250499 C.3        1 MOL1         0.1053
       9    H4      18.213823   15.499533   22.625409 H          1 MOL1         0.0783
      10    O3      18.464080   13.541083   23.279520 O.3        1 MOL1        -0.5519
      11    H5      17.679244   13.507261   23.872966 H          1 MOL1         0.3769
      12    C4      19.042751   14.309629   21.017179 C.3        1 MOL1         0.1018
      13    H6      19.158691   13.246102   20.769220 H          1 MOL1         0.0783
      14    C5      18.508438   15.060777   19.771193 C.3        1 MOL1         0.1043
      15    H7      18.642380   16.132457   19.944505 H          1 MOL1         0.0783
      16    O4      17.104594   14.763962   19.570201 O.3        1 MOL1        -0.3740
      17    C6      19.272511   14.683425   18.484736 C.3        1 MOL1         0.0138
      18    H8      19.010439   13.657672   18.192833 H          1 MOL1         0.0794
      19    H9      20.352106   14.707778   18.683550 H          1 MOL1         0.0794
      20    O5      18.956296   15.605443   17.439553 O.3        1 MOL1        -0.5486
      21    H10     17.977581   15.601517   17.354343 H          1 MOL1         0.3769
      22    C7      14.789128   20.171681   21.871484 C.3        1 MOL1         0.2972
      23    H11     14.145888   21.015569   22.152473 H          1 MOL1         0.0751
      24    O6      16.036073   20.617440   21.300731 O.3        1 MOL1        -0.3740
      25    C8      15.082661   19.280109   23.105891 C.3        1 MOL1         0.1003
      26    H12     14.120065   18.884241   23.455054 H          1 MOL1         0.0783
      27    O7      15.696162   20.023007   24.171232 O.3        1 MOL1        -0.5519
      28    H13     15.750264   20.965580   23.878704 H          1 MOL1         0.3769
      29    C9      15.978139   18.082864   22.715611 C.3        1 MOL1         0.1053
      30    H14     16.963283   18.479935   22.444057 H          1 MOL1         0.0783
      31    O8      16.105402   17.211436   23.842944 O.3        1 MOL1        -0.5519
      32    H15     16.301717   17.812540   24.596943 H          1 MOL1         0.3769
      33    C10     15.412289   17.309460   21.496532 C.3        1 MOL1         0.1018
      34    H16     14.579501   16.678546   21.834448 H          1 MOL1         0.0783
      35    C11     14.934835   18.253598   20.355222 C.3        1 MOL1         0.1043
      36    H17     15.823035   18.666747   19.858674 H          1 MOL1         0.0783
      37    O9      14.132735   19.336943   20.893261 O.3        1 MOL1        -0.3740
      38    C12     14.095258   17.533741   19.276739 C.3        1 MOL1         0.0138
      39    H18     14.723590   16.786444   18.774232 H          1 MOL1         0.0794
      40    H19     13.790941   18.267225   18.518097 H          1 MOL1         0.0794
      41    O10     12.944969   16.905649   19.850002 O.3        1 MOL1        -0.5486
      42    H20     12.440354   17.616739   20.304265 H          1 MOL1         0.3769
      43    C13     18.368305   23.981085   20.760762 C.3        1 MOL1         0.2972
      44    H21     18.793540   24.965074   20.524582 H          1 MOL1         0.0751
      45    O11     19.405006   22.998444   20.976458 O.3        1 MOL1        -0.3740
      46    C14     17.429988   24.058611   21.995731 C.3        1 MOL1         0.1003
      47    H22     16.606071   24.732126   21.725869 H          1 MOL1         0.0783
      48    O12     18.092509   24.587779   23.153439 O.3        1 MOL1        -0.5519
      49    H23     18.789665   23.931536   23.407273 H          1 MOL1         0.3769
      50    C15     16.820979   22.671101   22.310134 C.3        1 MOL1         0.1053
      51    H24     17.632801   22.012280   22.649269 H          1 MOL1         0.0783
      52    O13     15.845941   22.818789   23.347474 O.3        1 MOL1        -0.5519
      53    H25     16.245754   23.453124   23.985200 H          1 MOL1         0.3769
      54    C16     16.173073   22.030316   21.052749 C.3        1 MOL1         0.1018
      55    H26     15.201234   22.501994   20.854895 H          1 MOL1         0.0783
      56    C17     17.056306   22.163845   19.782798 C.3        1 MOL1         0.1043
      57    H27     17.894372   21.461684   19.859715 H          1 MOL1         0.0783
      58    O14     17.553345   23.520500   19.662564 O.3        1 MOL1        -0.3740
      59    C18     16.267906   21.834523   18.498527 C.3        1 MOL1         0.0138
      60    H28     15.467596   22.574516   18.364457 H          1 MOL1         0.0794
      61    H29     15.797201   20.848113   18.605715 H          1 MOL1         0.0794
      62    O15     17.146278   21.835158   17.371919 O.3        1 MOL1        -0.5486
      63    H30     17.644216   22.681795   17.415444 H          1 MOL1         0.3769
      64    C19     23.417077   22.573824   21.996680 C.3        1 MOL1         0.2972
      65    H31     24.445439   22.729897   22.346891 H          1 MOL1         0.0751
      66    O16     23.289094   21.332342   21.273536 O.3        1 MOL1        -0.3740
      67    C20     22.428444   22.589524   23.195251 C.3        1 MOL1         0.1003
      68    H32     22.528437   23.571919   23.674989 H          1 MOL1         0.0783
      69    O17     22.725158   21.569594   24.161778 O.3        1 MOL1        -0.5519
      70    H33     23.656731   21.281731   24.006415 H          1 MOL1         0.3769
      71    C21     20.965990   22.440708   22.717893 C.3        1 MOL1         0.1053
      72    H34     20.842368   21.426852   22.316769 H          1 MOL1         0.0783
      73    O18     20.096799   22.626104   23.839424 O.3        1 MOL1        -0.5519
      74    H35     20.488322   22.064523   24.546344 H          1 MOL1         0.3769
      75    C22     20.623596   23.455504   21.598265 C.3        1 MOL1         0.1018
      76    H36     20.505472   24.449506   22.049178 H          1 MOL1         0.0783
      77    C23     21.719793   23.510538   20.496929 C.3        1 MOL1         0.1043
      78    H37     21.676026   22.580296   19.915423 H          1 MOL1         0.0783
      79    O19     23.028706   23.643486   21.107261 O.3        1 MOL1        -0.3740
      80    C24     21.538616   24.685096   19.509710 C.3        1 MOL1         0.0138
      81    H38     20.604813   24.540712   18.950296 H          1 MOL1         0.0794
      82    H39     22.361088   24.664675   18.782155 H          1 MOL1         0.0794
      83    O20     21.513183   25.940328   20.195627 O.3        1 MOL1        -0.5486
      84    H40     22.359483   25.999753   20.692469 H          1 MOL1         0.3769
      85    C25     25.133147   17.678535   20.879390 C.3        1 MOL1         0.2972
      86    H41     25.768806   16.804221   20.688741 H          1 MOL1         0.0751
      87    O21     23.753114   17.298012   21.070100 O.3        1 MOL1        -0.3740
      88    C26     25.635939   18.482239   22.105951 C.3        1 MOL1         0.1003
      89    H42     26.633985   18.862108   21.851039 H          1 MOL1         0.0783
      90    O22     25.740690   17.667508   23.282854 O.3        1 MOL1        -0.5519
      91    H43     24.820478   17.385843   23.517676 H          1 MOL1         0.3769
      92    C27     24.719255   19.700068   22.372416 C.3        1 MOL1         0.1053
      93    H44     23.741832   19.320667   22.702163 H          1 MOL1         0.0783
      94    O23     25.310550   20.491854   23.409443 O.3        1 MOL1        -0.5519
      95    H45     25.674815   19.839347   24.050500 H          1 MOL1         0.3769
      96    C28     24.494440   20.556318   21.092406 C.3        1 MOL1         0.1018
      97    H46     25.363967   21.207062   20.930927 H          1 MOL1         0.0783
      98    C29     24.268084   19.700389   19.811378 C.3        1 MOL1         0.1043
      99    H47     23.243308   19.315725   19.824993 H          1 MOL1         0.0783
     100    O24     25.192860   18.584720   19.759358 O.3        1 MOL1        -0.3740
     101    C30     24.429126   20.513554   18.509097 C.3        1 MOL1         0.0138
     102    H48     23.719013   21.351309   18.521365 H          1 MOL1         0.0794
     103    H49     24.163938   19.870405   17.659108 H          1 MOL1         0.0794
     104    O25     25.767793   20.999457   18.368596 O.3        1 MOL1        -0.5486
     105    H50     26.351328   20.211868   18.446269 H          1 MOL1         0.3769
     106    C31     21.271432   14.119164   22.029625 C.3        1 MOL1         0.2972
     107    H51     20.838027   13.165459   22.356794 H          1 MOL1         0.0751
     108    O26     20.311691   14.923694   21.317395 O.3        1 MOL1        -0.3740
     109    C32     21.789636   14.925570   23.248200 C.3        1 MOL1         0.1003
     110    H52     22.562383   14.315645   23.734064 H          1 MOL1         0.0783
     111    O27     20.739691   15.193533   24.192082 O.3        1 MOL1        -0.5519
     112    H53     19.994272   14.581084   23.980440 H          1 MOL1         0.3769
     113    C33     22.438939   16.252840   22.791582 C.3        1 MOL1         0.1053
     114    H54     21.646581   16.891424   22.378619 H          1 MOL1         0.0783
     115    O28     23.033210   16.889543   23.926691 O.3        1 MOL1        -0.5519
     116    H55     22.337307   16.853144   24.621297 H          1 MOL1         0.3769
     117    C34     23.501897   16.020017   21.686965 C.3        1 MOL1         0.1018
     118    H56     24.406086   15.602729   22.149452 H          1 MOL1         0.0783
     119    C35     22.995437   15.066997   20.567970 C.3        1 MOL1         0.1043
     120    H57     22.247735   15.604351   19.970295 H          1 MOL1         0.0783
     121    O29     22.394061   13.883874   21.152521 O.3        1 MOL1        -0.3740
     122    C36     24.111797   14.603923   19.605745 C.3        1 MOL1         0.0138
     123    H58     24.502080   15.476615   19.065272 H          1 MOL1         0.0794
     124    H59     23.676200   13.926359   18.859246 H          1 MOL1         0.0794
     125    O30     25.168235   13.949387   20.314429 O.3        1 MOL1        -0.5486
     126    H60     24.754133   13.197607   20.793936 H          1 MOL1         0.3769
     127    C1      19.224293   19.041724   20.916903 C.3        1 MOL1        -0.1693
     128    H1      19.046800   18.152601   21.536185 H          1 MOL1         0.0829
     129    H2      18.694381   19.891532   21.360655 H          1 MOL1         0.0829
     130    C2      19.034674   18.820116   19.379069 C.3        1 MOL1        -0.1768
     131    H3      18.242813   18.126345   19.080257 H          1 MOL1         0.0829
     132    H4      18.933348   19.736376   18.784857 H          1 MOL1         0.0829
     133    C3      20.483834   18.244666   19.422742 C.3        1 MOL1         0.1211
     134    H5      20.550354   17.205603   19.767486 H          1 MOL1         0.0786
     135    C4      20.722589   19.287959   20.554115 C.3        1 MOL1        -0.1768
     136    H6      20.948284   20.298696   20.194977 H          1 MOL1         0.0829
     137    H7      21.454421   19.012121   21.320178 H          1 MOL1         0.0829
     138    O1      21.237814   18.421685   18.247150 O.3        1 MOL1        -0.5515
     139    H8      20.845679   17.828020   17.572593 H          1 MOL1         0.3773
@<TRIPOS>BOND
    1     1     2    1
    2     1     3    1
    3     1     4    1
    4     4     5    1
    5     4     6    1
    6     6     7    1
    7     4     8    1
    8     8     9    1
    9     8    10    1
   10    10    11    1
   11     8    12    1
   12    12    13    1
   13    12    14    1
   14    14    15    1
   15     1    16    1
   16    14    16    1
   17    14    17    1
   18    17    18    1
   19    17    19    1
   20    17    20    1
   21    20    21    1
   22    22    23    1
   23    22    24    1
   24    22    25    1
   25    25    26    1
   26    25    27    1
   27    27    28    1
   28    25    29    1
   29    29    30    1
   30    29    31    1
   31    31    32    1
   32     3    33    1
   33    29    33    1
   34    33    34    1
   35    33    35    1
   36    35    36    1
   37    22    37    1
   38    35    37    1
   39    35    38    1
   40    38    39    1
   41    38    40    1
   42    38    41    1
   43    41    42    1
   44    43    44    1
   45    43    45    1
   46    43    46    1
   47    46    47    1
   48    46    48    1
   49    48    49    1
   50    46    50    1
   51    50    51    1
   52    50    52    1
   53    52    53    1
   54    24    54    1
   55    50    54    1
   56    54    55    1
   57    54    56    1
   58    56    57    1
   59    43    58    1
   60    56    58    1
   61    56    59    1
   62    59    60    1
   63    59    61    1
   64    59    62    1
   65    62    63    1
   66    64    65    1
   67    64    66    1
   68    64    67    1
   69    67    68    1
   70    67    69    1
   71    69    70    1
   72    67    71    1
   73    71    72    1
   74    71    73    1
   75    73    74    1
   76    45    75    1
   77    71    75    1
   78    75    76    1
   79    75    77    1
   80    77    78    1
   81    64    79    1
   82    77    79    1
   83    77    80    1
   84    80    81    1
   85    80    82    1
   86    80    83    1
   87    83    84    1
   88    85    86    1
   89    85    87    1
   90    85    88    1
   91    88    89    1
   92    88    90    1
   93    90    91    1
   94    88    92    1
   95    92    93    1
   96    92    94    1
   97    94    95    1
   98    66    96    1
   99    92    96    1
  100    96    97    1
  101    96    98    1
  102    98    99    1
  103    85   100    1
  104    98   100    1
  105    98   101    1
  106   101   102    1
  107   101   103    1
  108   101   104    1
  109   104   105    1
  110   106   107    1
  111    12   108    1
  112   106   108    1
  113   106   109    1
  114   109   110    1
  115   109   111    1
  116   111   112    1
  117   109   113    1
  118   113   114    1
  119   113   115    1
  120   115   116    1
  121    87   117    1
  122   113   117    1
  123   117   118    1
  124   117   119    1
  125   119   120    1
  126   106   121    1
  127   119   121    1
  128   119   122    1
  129   122   123    1
  130   122   124    1
  131   122   125    1
  132   125   126    1
  133   127   128    1
  134   127   129    1
  135   127   130    1
  136   130   131    1
  137   130   132    1
  138   130   133    1
  139   133   134    1
  140   127   135    1
  141   133   135    1
  142   135   136    1
  143   135   137    1
  144   133   138    1
  145   138   139    1
@<TRIPOS>SUBSTRUCTURE
       1 MOL1            1 RESIDUE      1      MOL     
       2 MOL1          139 RESIDUE      1      MOL     
@<SCITEGIC>MOL_PROPERTY
VM2 Rank
SciTegic.value.IntegerValue
5

@<SCITEGIC>MOL_PROPERTY
Conf_Id
SciTegic.value.IntegerValue
19380

@<SCITEGIC>MOL_PROPERTY
Probability
SciTegic.value.DoubleValue
0.98

@<SCITEGIC>MOL_PROPERTY
Sum Probability
SciTegic.value.DoubleValue
5.62

@<SCITEGIC>MOL_PROPERTY
Delta G
SciTegic.value.DoubleValue
0.276

@<SCITEGIC>MOL_PROPERTY
G
SciTegic.value.DoubleValue
538.340

@<SCITEGIC>MOL_PROPERTY
E
SciTegic.value.DoubleValue
359.300

@<SCITEGIC>MOL_PROPERTY
-TS
SciTegic.value.DoubleValue
179.041

@<SCITEGIC>MOL_PROPERTY
U+W
SciTegic.value.DoubleValue
236.788

@<SCITEGIC>MOL_PROPERTY
U
SciTegic.value.DoubleValue
267.970

@<SCITEGIC>MOL_PROPERTY
W
SciTegic.value.DoubleValue
-31.182

@<SCITEGIC>MOL_PROPERTY
W(PB)
SciTegic.value.DoubleValue
-37.251

@<SCITEGIC>MOL_PROPERTY
W(SA)
SciTegic.value.DoubleValue
6.068

@<SCITEGIC>MOL_PROPERTY
Valence
SciTegic.value.DoubleValue
149.490

@<SCITEGIC>MOL_PROPERTY
Coulomb
SciTegic.value.DoubleValue
137.292

@<SCITEGIC>MOL_PROPERTY
VdW
SciTegic.value.DoubleValue
-18.812

@<SCITEGIC>MOL_PROPERTY
VdW6
SciTegic.value.DoubleValue
-166.353

@<SCITEGIC>MOL_PROPERTY
VdW12
SciTegic.value.DoubleValue
147.541

@<SCITEGIC>MOL_PROPERTY
Bond
SciTegic.value.DoubleValue
4.571

@<SCITEGIC>MOL_PROPERTY
Angle
SciTegic.value.DoubleValue
11.532

@<SCITEGIC>MOL_PROPERTY
Pdih
SciTegic.value.DoubleValue
133.386

@<SCITEGIC>MOL_PROPERTY
Idih
SciTegic.value.DoubleValue
0.000

@<SCITEGIC>MOL_PROPERTY
Tether
SciTegic.value.DoubleValue
0.000

@<TRIPOS>MOLECULE
CD_guest-s16_vm2_single.mol2 : vm2 host+ligand conformer 6
         139         145           2
SMALL
USER_CHARGES
 
@<TRIPOS>ATOM
       1    C1      16.388782   15.218823   20.616250 C.3        1 MOL1         0.2972
       2    H1      15.381885   15.089155   20.198456 H          1 MOL1         0.0751
       3    O1      16.588690   16.555009   21.115813 O.3        1 MOL1        -0.3740
       4    C2      16.647265   14.207768   21.760327 C.3        1 MOL1         0.1003
       5    H2      16.539086   13.203200   21.331094 H          1 MOL1         0.0783
       6    O2      15.691245   14.367290   22.820651 O.3        1 MOL1        -0.5519
       7    H3      15.704454   15.320593   23.090775 H          1 MOL1         0.3769
       8    C3      18.090628   14.332831   22.310270 C.3        1 MOL1         0.1053
       9    H4      18.156353   15.272977   22.872981 H          1 MOL1         0.0783
      10    O3      18.341342   13.229078   23.185266 O.3        1 MOL1        -0.5519
      11    H5      17.579835   13.210217   23.805314 H          1 MOL1         0.3769
      12    C4      19.163529   14.369452   21.184455 C.3        1 MOL1         0.1018
      13    H6      19.353050   13.347068   20.830557 H          1 MOL1         0.0783
      14    C5      18.750039   15.240713   19.964766 C.3        1 MOL1         0.1043
      15    H7      18.874416   16.300900   20.221093 H          1 MOL1         0.0783
      16    O4      17.375806   14.967654   19.599955 O.3        1 MOL1        -0.3740
      17    C6      19.596453   14.926682   18.713507 C.3        1 MOL1         0.0138
      18    H8      19.380040   13.902880   18.379859 H          1 MOL1         0.0794
      19    H9      20.660559   14.970782   18.964511 H          1 MOL1         0.0794
      20    O5      19.302706   15.862893   17.675556 O.3        1 MOL1        -0.5486
      21    H10     18.326075   15.850352   17.566114 H          1 MOL1         0.3769
      22    C7      14.687466   20.197210   21.580382 C.3        1 MOL1         0.2972
      23    H11     13.979092   21.028118   21.691045 H          1 MOL1         0.0751
      24    O6      16.045538   20.665336   21.448681 O.3        1 MOL1        -0.3740
      25    C8      14.608115   19.266026   22.815436 C.3        1 MOL1         0.1003
      26    H12     13.586673   18.866705   22.863153 H          1 MOL1         0.0783
      27    O7      14.889067   19.989410   24.024413 O.3        1 MOL1        -0.5519
      28    H13     15.363143   20.818974   23.766463 H          1 MOL1         0.3769
      29    C9      15.580092   18.073597   22.663795 C.3        1 MOL1         0.1053
      30    H14     16.597882   18.470723   22.695086 H          1 MOL1         0.0783
      31    O8      15.385999   17.155885   23.744334 O.3        1 MOL1        -0.5519
      32    H15     15.336202   17.721521   24.547401 H          1 MOL1         0.3769
      33    C10     15.400118   17.347261   21.309621 C.3        1 MOL1         0.1018
      34    H16     14.496527   16.725647   21.366846 H          1 MOL1         0.0783
      35    C11     15.297758   18.333812   20.110448 C.3        1 MOL1         0.1043
      36    H17     16.295043   18.754643   19.925721 H          1 MOL1         0.0783
      37    O9      14.368386   19.405197   20.416428 O.3        1 MOL1        -0.3740
      38    C12     14.826641   17.663578   18.800691 C.3        1 MOL1         0.0138
      39    H18     15.579621   16.931039   18.481525 H          1 MOL1         0.0794
      40    H19     14.763470   18.428536   18.015150 H          1 MOL1         0.0794
      41    O10     13.558898   17.024110   18.974583 O.3        1 MOL1        -0.5486
      42    H20     12.937572   17.722358   19.279457 H          1 MOL1         0.3769
      43    C13     18.384381   24.056368   20.962192 C.3        1 MOL1         0.2972
      44    H21     18.789419   25.051393   20.736546 H          1 MOL1         0.0751
      45    O11     19.434654   23.104514   21.229194 O.3        1 MOL1        -0.3740
      46    C14     17.415151   24.104696   22.173303 C.3        1 MOL1         0.1003
      47    H22     16.578698   24.757889   21.892651 H          1 MOL1         0.0783
      48    O12     18.048267   24.641873   23.343902 O.3        1 MOL1        -0.5519
      49    H23     18.826352   24.063236   23.547864 H          1 MOL1         0.3769
      50    C15     16.842365   22.695325   22.459936 C.3        1 MOL1         0.1053
      51    H24     17.672196   22.054932   22.786670 H          1 MOL1         0.0783
      52    O13     15.856774   22.776854   23.493865 O.3        1 MOL1        -0.5519
      53    H25     16.243583   23.377790   24.169660 H          1 MOL1         0.3769
      54    C16     16.218586   22.071593   21.184887 C.3        1 MOL1         0.1018
      55    H26     15.264310   22.570201   20.968786 H          1 MOL1         0.0783
      56    C17     17.140642   22.202965   19.942955 C.3        1 MOL1         0.1043
      57    H27     17.982341   21.507429   20.046487 H          1 MOL1         0.0783
      58    O14     17.623491   23.566838   19.836786 O.3        1 MOL1        -0.3740
      59    C18     16.395066   21.872305   18.633423 C.3        1 MOL1         0.0138
      60    H28     15.593045   22.606193   18.477567 H          1 MOL1         0.0794
      61    H29     15.929059   20.882506   18.719437 H          1 MOL1         0.0794
      62    O15     17.307874   21.885487   17.534674 O.3        1 MOL1        -0.5486
      63    H30     17.786230   22.742898   17.588825 H          1 MOL1         0.3769
      64    C19     23.486874   22.681924   21.916439 C.3        1 MOL1         0.2972
      65    H31     24.555108   22.806401   22.135815 H          1 MOL1         0.0751
      66    O16     23.199571   21.367564   21.394371 O.3        1 MOL1        -0.3740
      67    C20     22.644142   22.911491   23.196660 C.3        1 MOL1         0.1003
      68    H32     22.822166   23.944307   23.523390 H          1 MOL1         0.0783
      69    O17     23.024227   22.011887   24.250610 O.3        1 MOL1        -0.5519
      70    H33     23.844582   21.546648   23.955634 H          1 MOL1         0.3769
      71    C21     21.138534   22.755720   22.887534 C.3        1 MOL1         0.1053
      72    H34     20.968186   21.705952   22.625812 H          1 MOL1         0.0783
      73    O18     20.383868   23.093856   24.054628 O.3        1 MOL1        -0.5519
      74    H35     20.845695   22.627918   24.787853 H          1 MOL1         0.3769
      75    C22     20.698548   23.629109   21.684694 C.3        1 MOL1         0.1018
      76    H36     20.614065   24.671695   22.019122 H          1 MOL1         0.0783
      77    C23     21.685029   23.528613   20.485490 C.3        1 MOL1         0.1043
      78    H37     21.547124   22.547770   20.011181 H          1 MOL1         0.0783
      79    O19     23.056639   23.655866   20.941022 O.3        1 MOL1        -0.3740
      80    C24     21.444205   24.605741   19.404539 C.3        1 MOL1         0.0138
      81    H38     20.450785   24.452963   18.962275 H          1 MOL1         0.0794
      82    H39     22.182379   24.472729   18.602336 H          1 MOL1         0.0794
      83    O20     21.541231   25.922314   19.955677 O.3        1 MOL1        -0.5486
      84    H40     22.437184   25.988536   20.355078 H          1 MOL1         0.3769
      85    C25     25.046564   17.685168   20.866838 C.3        1 MOL1         0.2972
      86    H41     25.702148   16.847076   20.597036 H          1 MOL1         0.0751
      87    O21     23.749210   17.230843   21.294760 O.3        1 MOL1        -0.3740
      88    C26     25.671866   18.554444   21.988481 C.3        1 MOL1         0.1003
      89    H42     26.607558   18.968251   21.590415 H          1 MOL1         0.0783
      90    O22     25.971643   17.779821   23.159219 O.3        1 MOL1        -0.5519
      91    H43     25.128629   17.350250   23.453520 H          1 MOL1         0.3769
      92    C27     24.741972   19.742183   22.342903 C.3        1 MOL1         0.1053
      93    H44     23.828579   19.336946   22.800769 H          1 MOL1         0.0783
      94    O23     25.416264   20.593628   23.275579 O.3        1 MOL1        -0.5519
      95    H45     25.869432   19.979420   23.897379 H          1 MOL1         0.3769
      96    C28     24.335283   20.540153   21.071928 C.3        1 MOL1         0.1018
      97    H46     25.185196   21.145200   20.728797 H          1 MOL1         0.0783
      98    C29     23.885101   19.617471   19.907473 C.3        1 MOL1         0.1043
      99    H47     22.893671   19.205787   20.140684 H          1 MOL1         0.0783
     100    O24     24.850678   18.549737   19.728186 O.3        1 MOL1        -0.3740
     101    C30     23.790134   20.385571   18.572719 C.3        1 MOL1         0.0138
     102    H48     24.786548   20.755232   18.295863 H          1 MOL1         0.0794
     103    H49     23.134507   21.256901   18.701154 H          1 MOL1         0.0794
     104    O25     23.271428   19.531089   17.552084 O.3        1 MOL1        -0.5486
     105    H50     23.812080   18.710475   17.584137 H          1 MOL1         0.3769
     106    C31     21.360116   14.031080   22.209885 C.3        1 MOL1         0.2972
     107    H51     20.910678   13.069071   22.487955 H          1 MOL1         0.0751
     108    O26     20.354320   14.961627   21.752907 O.3        1 MOL1        -0.3740
     109    C32     22.116072   14.622266   23.427576 C.3        1 MOL1         0.1003
     110    H52     22.892713   13.898942   23.707506 H          1 MOL1         0.0783
     111    O27     21.233681   14.818466   24.541238 O.3        1 MOL1        -0.5519
     112    H53     20.622876   15.552543   24.283607 H          1 MOL1         0.3769
     113    C33     22.809440   15.955168   23.070657 C.3        1 MOL1         0.1053
     114    H54     22.023356   16.697414   22.914040 H          1 MOL1         0.0783
     115    O28     23.641540   16.366872   24.159468 O.3        1 MOL1        -0.5519
     116    H55     23.066547   16.307824   24.954859 H          1 MOL1         0.3769
     117    C34     23.639268   15.873873   21.766930 C.3        1 MOL1         0.1018
     118    H56     24.617934   15.428693   21.990588 H          1 MOL1         0.0783
     119    C35     22.922798   15.079669   20.639655 C.3        1 MOL1         0.1043
     120    H57     22.137209   15.729349   20.235646 H          1 MOL1         0.0783
     121    O29     22.327263   13.858647   21.151248 O.3        1 MOL1        -0.3740
     122    C36     23.857976   14.698658   19.470988 C.3        1 MOL1         0.0138
     123    H58     24.226317   15.616118   18.993085 H          1 MOL1         0.0794
     124    H59     23.277465   14.148819   18.718118 H          1 MOL1         0.0794
     125    O30     24.956702   13.905049   19.927868 O.3        1 MOL1        -0.5486
     126    H60     24.564226   13.120311   20.371643 H          1 MOL1         0.3769
     127    C1      19.403923   19.565128   21.536720 C.3        1 MOL1        -0.1693
     128    H1      18.555012   19.265144   20.908690 H          1 MOL1         0.0829
     129    H2      19.839978   20.478649   21.120969 H          1 MOL1         0.0829
     130    C2      20.414327   18.420208   21.861181 C.3        1 MOL1        -0.1768
     131    H3      20.582100   17.682490   21.070383 H          1 MOL1         0.0829
     132    H4      21.386564   18.766843   22.232977 H          1 MOL1         0.0829
     133    C3      19.391420   18.022941   22.970445 C.3        1 MOL1         0.1211
     134    H5      18.541354   17.443386   22.592516 H          1 MOL1         0.0786
     135    C4      19.120468   19.553256   23.077267 C.3        1 MOL1        -0.1768
     136    H6      19.847913   20.094997   23.693140 H          1 MOL1         0.0829
     137    H7      18.116233   19.849738   23.392915 H          1 MOL1         0.0829
     138    O1      19.916391   17.421600   24.131016 O.3        1 MOL1        -0.5515
     139    H8      19.263910   17.570355   24.845577 H          1 MOL1         0.3773
@<TRIPOS>BOND
    1     1     2    1
    2     1     3    1
    3     1     4    1
    4     4     5    1
    5     4     6    1
    6     6     7    1
    7     4     8    1
    8     8     9    1
    9     8    10    1
   10    10    11    1
   11     8    12    1
   12    12    13    1
   13    12    14    1
   14    14    15    1
   15     1    16    1
   16    14    16    1
   17    14    17    1
   18    17    18    1
   19    17    19    1
   20    17    20    1
   21    20    21    1
   22    22    23    1
   23    22    24    1
   24    22    25    1
   25    25    26    1
   26    25    27    1
   27    27    28    1
   28    25    29    1
   29    29    30    1
   30    29    31    1
   31    31    32    1
   32     3    33    1
   33    29    33    1
   34    33    34    1
   35    33    35    1
   36    35    36    1
   37    22    37    1
   38    35    37    1
   39    35    38    1
   40    38    39    1
   41    38    40    1
   42    38    41    1
   43    41    42    1
   44    43    44    1
   45    43    45    1
   46    43    46    1
   47    46    47    1
   48    46    48    1
   49    48    49    1
   50    46    50    1
   51    50    51    1
   52    50    52    1
   53    52    53    1
   54    24    54    1
   55    50    54    1
   56    54    55    1
   57    54    56    1
   58    56    57    1
   59    43    58    1
   60    56    58    1
   61    56    59    1
   62    59    60    1
   63    59    61    1
   64    59    62    1
   65    62    63    1
   66    64    65    1
   67    64    66    1
   68    64    67    1
   69    67    68    1
   70    67    69    1
   71    69    70    1
   72    67    71    1
   73    71    72    1
   74    71    73    1
   75    73    74    1
   76    45    75    1
   77    71    75    1
   78    75    76    1
   79    75    77    1
   80    77    78    1
   81    64    79    1
   82    77    79    1
   83    77    80    1
   84    80    81    1
   85    80    82    1
   86    80    83    1
   87    83    84    1
   88    85    86    1
   89    85    87    1
   90    85    88    1
   91    88    89    1
   92    88    90    1
   93    90    91    1
   94    88    92    1
   95    92    93    1
   96    92    94    1
   97    94    95    1
   98    66    96    1
   99    92    96    1
  100    96    97    1
  101    96    98    1
  102    98    99    1
  103    85   100    1
  104    98   100    1
  105    98   101    1
  106   101   102    1
  107   101   103    1
  108   101   104    1
  109   104   105    1
  110   106   107    1
  111    12   108    1
  112   106   108    1
  113   106   109    1
  114   109   110    1
  115   109   111    1
  116   111   112    1
  117   109   113    1
  118   113   114    1
  119   113   115    1
  120   115   116    1
  121    87   117    1
  122   113   117    1
  123   117   118    1
  124   117   119    1
  125   119   120    1
  126   106   121    1
  127   119   121    1
  128   119   122    1
  129   122   123    1
  130   122   124    1
  131   122   125    1
  132   125   126    1
  133   127   128    1
  134   127   129    1
  135   127   130    1
  136   130   131    1
  137   130   132    1
  138   130   133    1
  139   133   134    1
  140   127   135    1
  141   133   135    1
  142   135   136    1
  143   135   137    1
  144   133   138    1
  145   138   139    1
@<TRIPOS>SUBSTRUCTURE
       1 MOL1            1 RESIDUE      1      MOL     
       2 MOL1          139 RESIDUE      1      MOL     
@<SCITEGIC>MOL_PROPERTY
VM2 Rank
SciTegic.value.IntegerValue
6

@<SCITEGIC>MOL_PROPERTY
Conf_Id
SciTegic.value.IntegerValue
22741

@<SCITEGIC>MOL_PROPERTY
Probability
SciTegic.value.DoubleValue
0.97

@<SCITEGIC>MOL_PROPERTY
Sum Probability
SciTegic.value.DoubleValue
6.59

@<SCITEGIC>MOL_PROPERTY
Delta G
SciTegic.value.DoubleValue
0.284

@<SCITEGIC>MOL_PROPERTY
G
SciTegic.value.DoubleValue
538.347

@<SCITEGIC>MOL_PROPERTY
E
SciTegic.value.DoubleValue
360.219

@<SCITEGIC>MOL_PROPERTY
-TS
SciTegic.value.DoubleValue
178.128

@<SCITEGIC>MOL_PROPERTY
U+W
SciTegic.value.DoubleValue
237.708

@<SCITEGIC>MOL_PROPERTY
U
SciTegic.value.DoubleValue
272.293

@<SCITEGIC>MOL_PROPERTY
W
SciTegic.value.DoubleValue
-34.585

@<SCITEGIC>MOL_PROPERTY
W(PB)
SciTegic.value.DoubleValue
-40.654

@<SCITEGIC>MOL_PROPERTY
W(SA)
SciTegic.value.DoubleValue
6.069

@<SCITEGIC>MOL_PROPERTY
Valence
SciTegic.value.DoubleValue
151.057

@<SCITEGIC>MOL_PROPERTY
Coulomb
SciTegic.value.DoubleValue
142.226

@<SCITEGIC>MOL_PROPERTY
VdW
SciTegic.value.DoubleValue
-20.990

@<SCITEGIC>MOL_PROPERTY
VdW6
SciTegic.value.DoubleValue
-163.889

@<SCITEGIC>MOL_PROPERTY
VdW12
SciTegic.value.DoubleValue
142.899

@<SCITEGIC>MOL_PROPERTY
Bond
SciTegic.value.DoubleValue
4.410

@<SCITEGIC>MOL_PROPERTY
Angle
SciTegic.value.DoubleValue
10.930

@<SCITEGIC>MOL_PROPERTY
Pdih
SciTegic.value.DoubleValue
135.717

@<SCITEGIC>MOL_PROPERTY
Idih
SciTegic.value.DoubleValue
0.000

@<SCITEGIC>MOL_PROPERTY
Tether
SciTegic.value.DoubleValue
0.000

@<TRIPOS>MOLECULE
CD_guest-s16_vm2_single.mol2 : vm2 host+ligand conformer 7
         139         145           2
SMALL
USER_CHARGES
 
@<TRIPOS>ATOM
       1    C1      16.403335   15.303472   20.535567 C.3        1 MOL1         0.2972
       2    H1      15.400338   15.176388   20.107715 H          1 MOL1         0.0751
       3    O1      16.579374   16.618403   21.095125 O.3        1 MOL1        -0.3740
       4    C2      16.670489   14.250665   21.639156 C.3        1 MOL1         0.1003
       5    H2      16.568196   13.262509   21.172050 H          1 MOL1         0.0783
       6    O2      15.712897   14.366930   22.704362 O.3        1 MOL1        -0.5519
       7    H3      15.711127   15.312828   22.999360 H          1 MOL1         0.3769
       8    C3      18.112241   14.361912   22.197727 C.3        1 MOL1         0.1053
       9    H4      18.169520   15.278810   22.798694 H          1 MOL1         0.0783
      10    O3      18.361243   13.225290   23.030411 O.3        1 MOL1        -0.5519
      11    H5      17.593521   13.177606   23.641262 H          1 MOL1         0.3769
      12    C4      19.190953   14.454756   21.078947 C.3        1 MOL1         0.1018
      13    H6      19.387284   13.451404   20.678241 H          1 MOL1         0.0783
      14    C5      18.766534   15.387149   19.905661 C.3        1 MOL1         0.1043
      15    H7      18.856321   16.429697   20.235901 H          1 MOL1         0.0783
      16    O4      17.399290   15.116608   19.514396 O.3        1 MOL1        -0.3740
      17    C6      19.623777   15.217653   18.631103 C.3        1 MOL1         0.0138
      18    H8      20.660095   15.493627   18.846356 H          1 MOL1         0.0794
      19    H9      19.256266   15.916469   17.867736 H          1 MOL1         0.0794
      20    O5      19.563351   13.876119   18.138595 O.3        1 MOL1        -0.5486
      21    H10     18.609065   13.672209   18.020286 H          1 MOL1         0.3769
      22    C7      14.667465   20.238991   21.613813 C.3        1 MOL1         0.2972
      23    H11     13.960378   21.069220   21.737055 H          1 MOL1         0.0751
      24    O6      16.027221   20.706841   21.499111 O.3        1 MOL1        -0.3740
      25    C8      14.579918   19.285585   22.831090 C.3        1 MOL1         0.1003
      26    H12     13.556386   18.890578   22.868685 H          1 MOL1         0.0783
      27    O7      14.860808   19.988387   24.052240 O.3        1 MOL1        -0.5519
      28    H13     15.351037   20.812901   23.809125 H          1 MOL1         0.3769
      29    C9      15.546876   18.090835   22.662643 C.3        1 MOL1         0.1053
      30    H14     16.566892   18.480214   22.716947 H          1 MOL1         0.0783
      31    O8      15.335424   17.146384   23.716900 O.3        1 MOL1        -0.5519
      32    H15     15.285556   17.689701   24.535057 H          1 MOL1         0.3769
      33    C10     15.381959   17.395571   21.290474 C.3        1 MOL1         0.1018
      34    H16     14.483607   16.764840   21.326610 H          1 MOL1         0.0783
      35    C11     15.283392   18.405638   20.110539 C.3        1 MOL1         0.1043
      36    H17     16.281009   18.830837   19.938428 H          1 MOL1         0.0783
      37    O9      14.352351   19.469975   20.433892 O.3        1 MOL1        -0.3740
      38    C12     14.817944   17.762906   18.784931 C.3        1 MOL1         0.0138
      39    H18     15.574366   17.040735   18.450531 H          1 MOL1         0.0794
      40    H19     14.753629   18.545077   18.016614 H          1 MOL1         0.0794
      41    O10     13.552099   17.115242   18.941270 O.3        1 MOL1        -0.5486
      42    H20     12.927204   17.804432   19.259206 H          1 MOL1         0.3769
      43    C13     18.375688   24.092318   21.020185 C.3        1 MOL1         0.2972
      44    H21     18.783196   25.087533   20.799869 H          1 MOL1         0.0751
      45    O11     19.423861   23.133627   21.270675 O.3        1 MOL1        -0.3740
      46    C14     17.415975   24.134185   22.239273 C.3        1 MOL1         0.1003
      47    H22     16.579979   24.793212   21.971209 H          1 MOL1         0.0783
      48    O12     18.061152   24.658207   23.409236 O.3        1 MOL1        -0.5519
      49    H23     18.841169   24.077280   23.598891 H          1 MOL1         0.3769
      50    C15     16.840008   22.724497   22.517954 C.3        1 MOL1         0.1053
      51    H24     17.670761   22.079146   22.831592 H          1 MOL1         0.0783
      52    O13     15.863382   22.797605   23.561185 O.3        1 MOL1        -0.5519
      53    H25     16.258436   23.388243   24.241166 H          1 MOL1         0.3769
      54    C16     16.203454   22.114244   21.242809 C.3        1 MOL1         0.1018
      55    H26     15.249320   22.618472   21.039519 H          1 MOL1         0.0783
      56    C17     17.116069   22.252879   19.994552 C.3        1 MOL1         0.1043
      57    H27     17.955356   21.552865   20.085594 H          1 MOL1         0.0783
      58    O14     17.604207   23.615489   19.896602 O.3        1 MOL1        -0.3740
      59    C18     16.360104   21.938046   18.687103 C.3        1 MOL1         0.0138
      60    H28     15.565339   22.681515   18.539676 H          1 MOL1         0.0794
      61    H29     15.883746   20.953142   18.769245 H          1 MOL1         0.0794
      62    O15     17.267495   21.947298   17.583809 O.3        1 MOL1        -0.5486
      63    H30     17.752258   22.801118   17.637367 H          1 MOL1         0.3769
      64    C19     23.483949   22.687450   21.908958 C.3        1 MOL1         0.2972
      65    H31     24.554741   22.809350   22.117022 H          1 MOL1         0.0751
      66    O16     23.188946   21.374089   21.387909 O.3        1 MOL1        -0.3740
      67    C20     22.655913   22.918420   23.198735 C.3        1 MOL1         0.1003
      68    H32     22.841956   23.949942   23.525088 H          1 MOL1         0.0783
      69    O17     23.042766   22.015817   24.247564 O.3        1 MOL1        -0.5519
      70    H33     23.859685   21.549486   23.944871 H          1 MOL1         0.3769
      71    C21     21.146489   22.769845   22.906021 C.3        1 MOL1         0.1053
      72    H34     20.969528   21.721758   22.642359 H          1 MOL1         0.0783
      73    O18     20.406173   23.107034   24.082536 O.3        1 MOL1        -0.5519
      74    H35     20.875208   22.637848   24.809125 H          1 MOL1         0.3769
      75    C22     20.696972   23.648800   21.711108 C.3        1 MOL1         0.1018
      76    H36     20.623799   24.691246   22.048624 H          1 MOL1         0.0783
      77    C23     21.668340   23.543306   20.500119 C.3        1 MOL1         0.1043
      78    H37     21.519963   22.563140   20.027605 H          1 MOL1         0.0783
      79    O19     23.046002   23.663730   20.939157 O.3        1 MOL1        -0.3740
      80    C24     21.419705   24.621900   19.422419 C.3        1 MOL1         0.0138
      81    H38     20.419881   24.474674   18.992865 H          1 MOL1         0.0794
      82    H39     22.146890   24.485033   18.610885 H          1 MOL1         0.0794
      83    O20     21.530919   25.937787   19.972530 O.3        1 MOL1        -0.5486
      84    H40     22.432126   25.998873   20.360774 H          1 MOL1         0.3769
      85    C25     25.040582   17.691421   20.834687 C.3        1 MOL1         0.2972
      86    H41     25.700346   16.859426   20.556494 H          1 MOL1         0.0751
      87    O21     23.747916   17.225116   21.262430 O.3        1 MOL1        -0.3740
      88    C26     25.665328   18.556978   21.959996 C.3        1 MOL1         0.1003
      89    H42     26.600413   18.972852   21.562658 H          1 MOL1         0.0783
      90    O22     25.966781   17.778026   23.127648 O.3        1 MOL1        -0.5519
      91    H43     25.122152   17.356261   23.428391 H          1 MOL1         0.3769
      92    C27     24.736330   19.743330   22.321851 C.3        1 MOL1         0.1053
      93    H44     23.826145   19.336127   22.784284 H          1 MOL1         0.0783
      94    O23     25.416422   20.592580   23.252293 O.3        1 MOL1        -0.5519
      95    H45     25.872801   19.977091   23.870462 H          1 MOL1         0.3769
      96    C28     24.320833   20.544556   21.055687 C.3        1 MOL1         0.1018
      97    H46     25.169022   21.148346   20.706144 H          1 MOL1         0.0783
      98    C29     23.861360   19.622221   19.895010 C.3        1 MOL1         0.1043
      99    H47     22.875802   19.204055   20.140601 H          1 MOL1         0.0783
     100    O24     24.832361   18.561568   19.702376 O.3        1 MOL1        -0.3740
     101    C30     23.742278   20.390100   18.562222 C.3        1 MOL1         0.0138
     102    H48     24.732291   20.765240   18.270176 H          1 MOL1         0.0794
     103    H49     23.083752   21.257699   18.700713 H          1 MOL1         0.0794
     104    O25     23.212308   19.531914   17.550189 O.3        1 MOL1        -0.5486
     105    H50     23.765872   18.719462   17.566516 H          1 MOL1         0.3769
     106    C31     21.345563   14.067486   22.177613 C.3        1 MOL1         0.2972
     107    H51     20.863499   13.121592   22.455188 H          1 MOL1         0.0751
     108    O26     20.379513   15.021864   21.678923 O.3        1 MOL1        -0.3740
     109    C32     22.087602   14.653858   23.405384 C.3        1 MOL1         0.1003
     110    H52     22.851553   13.922956   23.700223 H          1 MOL1         0.0783
     111    O27     21.191575   14.864445   24.505352 O.3        1 MOL1        -0.5519
     112    H53     20.602530   15.614850   24.244045 H          1 MOL1         0.3769
     113    C33     22.801773   15.975518   23.048291 C.3        1 MOL1         0.1053
     114    H54     22.025157   16.723979   22.873053 H          1 MOL1         0.0783
     115    O28     23.620584   16.390972   24.145849 O.3        1 MOL1        -0.5519
     116    H55     23.033140   16.345639   24.932979 H          1 MOL1         0.3769
     117    C34     23.652868   15.875486   21.758455 C.3        1 MOL1         0.1018
     118    H56     24.634933   15.451939   22.007762 H          1 MOL1         0.0783
     119    C35     22.971563   15.047473   20.632073 C.3        1 MOL1         0.1043
     120    H57     22.207970   15.688126   20.179315 H          1 MOL1         0.0783
     121    O29     22.342927   13.850577   21.157179 O.3        1 MOL1        -0.3740
     122    C36     23.942334   14.620970   19.509503 C.3        1 MOL1         0.0138
     123    H58     24.333634   15.519038   19.013546 H          1 MOL1         0.0794
     124    H59     23.381803   14.049821   18.757010 H          1 MOL1         0.0794
     125    O30     25.018690   13.835654   20.029595 O.3        1 MOL1        -0.5486
     126    H60     24.604798   13.066728   20.481568 H          1 MOL1         0.3769
     127    C1      19.407816   19.604110   21.513723 C.3        1 MOL1        -0.1693
     128    H1      18.571126   19.296035   20.873347 H          1 MOL1         0.0829
     129    H2      19.839853   20.523068   21.105865 H          1 MOL1         0.0829
     130    C2      20.426296   18.470717   21.852757 C.3        1 MOL1        -0.1768
     131    H3      20.616804   17.735950   21.064643 H          1 MOL1         0.0829
     132    H4      21.388285   18.827399   22.241543 H          1 MOL1         0.0829
     133    C3      19.390909   18.060384   22.945546 C.3        1 MOL1         0.1211
     134    H5      18.551711   17.472194   22.556366 H          1 MOL1         0.0786
     135    C4      19.101221   19.586972   23.049807 C.3        1 MOL1        -0.1768
     136    H6      19.812452   20.135528   23.678256 H          1 MOL1         0.0829
     137    H7      18.089294   19.871184   23.350739 H          1 MOL1         0.0829
     138    O1      19.907465   17.465292   24.112527 O.3        1 MOL1        -0.5515
     139    H8      19.248400   17.614671   24.820994 H          1 MOL1         0.3773
@<TRIPOS>BOND
    1     1     2    1
    2     1     3    1
    3     1     4    1
    4     4     5    1
    5     4     6    1
    6     6     7    1
    7     4     8    1
    8     8     9    1
    9     8    10    1
   10    10    11    1
   11     8    12    1
   12    12    13    1
   13    12    14    1
   14    14    15    1
   15     1    16    1
   16    14    16    1
   17    14    17    1
   18    17    18    1
   19    17    19    1
   20    17    20    1
   21    20    21    1
   22    22    23    1
   23    22    24    1
   24    22    25    1
   25    25    26    1
   26    25    27    1
   27    27    28    1
   28    25    29    1
   29    29    30    1
   30    29    31    1
   31    31    32    1
   32     3    33    1
   33    29    33    1
   34    33    34    1
   35    33    35    1
   36    35    36    1
   37    22    37    1
   38    35    37    1
   39    35    38    1
   40    38    39    1
   41    38    40    1
   42    38    41    1
   43    41    42    1
   44    43    44    1
   45    43    45    1
   46    43    46    1
   47    46    47    1
   48    46    48    1
   49    48    49    1
   50    46    50    1
   51    50    51    1
   52    50    52    1
   53    52    53    1
   54    24    54    1
   55    50    54    1
   56    54    55    1
   57    54    56    1
   58    56    57    1
   59    43    58    1
   60    56    58    1
   61    56    59    1
   62    59    60    1
   63    59    61    1
   64    59    62    1
   65    62    63    1
   66    64    65    1
   67    64    66    1
   68    64    67    1
   69    67    68    1
   70    67    69    1
   71    69    70    1
   72    67    71    1
   73    71    72    1
   74    71    73    1
   75    73    74    1
   76    45    75    1
   77    71    75    1
   78    75    76    1
   79    75    77    1
   80    77    78    1
   81    64    79    1
   82    77    79    1
   83    77    80    1
   84    80    81    1
   85    80    82    1
   86    80    83    1
   87    83    84    1
   88    85    86    1
   89    85    87    1
   90    85    88    1
   91    88    89    1
   92    88    90    1
   93    90    91    1
   94    88    92    1
   95    92    93    1
   96    92    94    1
   97    94    95    1
   98    66    96    1
   99    92    96    1
  100    96    97    1
  101    96    98    1
  102    98    99    1
  103    85   100    1
  104    98   100    1
  105    98   101    1
  106   101   102    1
  107   101   103    1
  108   101   104    1
  109   104   105    1
  110   106   107    1
  111    12   108    1
  112   106   108    1
  113   106   109    1
  114   109   110    1
  115   109   111    1
  116   111   112    1
  117   109   113    1
  118   113   114    1
  119   113   115    1
  120   115   116    1
  121    87   117    1
  122   113   117    1
  123   117   118    1
  124   117   119    1
  125   119   120    1
  126   106   121    1
  127   119   121    1
  128   119   122    1
  129   122   123    1
  130   122   124    1
  131   122   125    1
  132   125   126    1
  133   127   128    1
  134   127   129    1
  135   127   130    1
  136   130   131    1
  137   130   132    1
  138   130   133    1
  139   133   134    1
  140   127   135    1
  141   133   135    1
  142   135   136    1
  143   135   137    1
  144   133   138    1
  145   138   139    1
@<TRIPOS>SUBSTRUCTURE
       1 MOL1            1 RESIDUE      1      MOL     
       2 MOL1          139 RESIDUE      1      MOL     
@<SCITEGIC>MOL_PROPERTY
VM2 Rank
SciTegic.value.IntegerValue
7

@<SCITEGIC>MOL_PROPERTY
Conf_Id
SciTegic.value.IntegerValue
22335

@<SCITEGIC>MOL_PROPERTY
Probability
SciTegic.value.DoubleValue
0.83

@<SCITEGIC>MOL_PROPERTY
Sum Probability
SciTegic.value.DoubleValue
7.42

@<SCITEGIC>MOL_PROPERTY
Delta G
SciTegic.value.DoubleValue
0.377

@<SCITEGIC>MOL_PROPERTY
G
SciTegic.value.DoubleValue
538.441

@<SCITEGIC>MOL_PROPERTY
E
SciTegic.value.DoubleValue
360.197

@<SCITEGIC>MOL_PROPERTY
-TS
SciTegic.value.DoubleValue
178.244

@<SCITEGIC>MOL_PROPERTY
U+W
SciTegic.value.DoubleValue
237.686

@<SCITEGIC>MOL_PROPERTY
U
SciTegic.value.DoubleValue
272.056

@<SCITEGIC>MOL_PROPERTY
W
SciTegic.value.DoubleValue
-34.370

@<SCITEGIC>MOL_PROPERTY
W(PB)
SciTegic.value.DoubleValue
-40.424

@<SCITEGIC>MOL_PROPERTY
W(SA)
SciTegic.value.DoubleValue
6.054

@<SCITEGIC>MOL_PROPERTY
Valence
SciTegic.value.DoubleValue
150.652

@<SCITEGIC>MOL_PROPERTY
Coulomb
SciTegic.value.DoubleValue
142.028

@<SCITEGIC>MOL_PROPERTY
VdW
SciTegic.value.DoubleValue
-20.625

@<SCITEGIC>MOL_PROPERTY
VdW6
SciTegic.value.DoubleValue
-164.379

@<SCITEGIC>MOL_PROPERTY
VdW12
SciTegic.value.DoubleValue
143.754

@<SCITEGIC>MOL_PROPERTY
Bond
SciTegic.value.DoubleValue
4.496

@<SCITEGIC>MOL_PROPERTY
Angle
SciTegic.value.DoubleValue
11.252

@<SCITEGIC>MOL_PROPERTY
Pdih
SciTegic.value.DoubleValue
134.904

@<SCITEGIC>MOL_PROPERTY
Idih
SciTegic.value.DoubleValue
0.000

@<SCITEGIC>MOL_PROPERTY
Tether
SciTegic.value.DoubleValue
0.000

@<TRIPOS>MOLECULE
CD_guest-s16_vm2_single.mol2 : vm2 host+ligand conformer 8
         139         145           2
SMALL
USER_CHARGES
 
@<TRIPOS>ATOM
       1    C1      16.377724   15.186493   20.653614 C.3        1 MOL1         0.2972
       2    H1      15.370885   15.053208   20.236804 H          1 MOL1         0.0751
       3    O1      16.578055   16.526535   21.142211 O.3        1 MOL1        -0.3740
       4    C2      16.633657   14.187635   21.808616 C.3        1 MOL1         0.1003
       5    H2      16.520073   13.178494   21.391694 H          1 MOL1         0.0783
       6    O2      15.679545   14.365897   22.867896 O.3        1 MOL1        -0.5519
       7    H3      15.685375   15.325767   23.113943 H          1 MOL1         0.3769
       8    C3      18.078009   14.312470   22.356224 C.3        1 MOL1         0.1053
       9    H4      18.146625   15.256668   22.911695 H          1 MOL1         0.0783
      10    O3      18.325616   13.215097   23.240085 O.3        1 MOL1        -0.5519
      11    H5      17.564973   13.204642   23.861422 H          1 MOL1         0.3769
      12    C4      19.151184   14.338007   21.230140 C.3        1 MOL1         0.1018
      13    H6      19.340318   13.312767   20.884405 H          1 MOL1         0.0783
      14    C5      18.738711   15.200659   20.004029 C.3        1 MOL1         0.1043
      15    H7      18.862549   16.262256   20.254067 H          1 MOL1         0.0783
      16    O4      17.365035   14.925586   19.640281 O.3        1 MOL1        -0.3740
      17    C6      19.585041   14.880290   18.754348 C.3        1 MOL1         0.0138
      18    H8      19.354054   13.861830   18.414113 H          1 MOL1         0.0794
      19    H9      20.648568   14.905604   19.009459 H          1 MOL1         0.0794
      20    O5      19.310505   15.827438   17.720746 O.3        1 MOL1        -0.5486
      21    H10     18.335797   15.818978   17.595488 H          1 MOL1         0.3769
      22    C7      14.686790   20.188791   21.497478 C.3        1 MOL1         0.2972
      23    H11     13.976485   21.021738   21.575035 H          1 MOL1         0.0751
      24    O6      16.048837   20.653939   21.392854 O.3        1 MOL1        -0.3740
      25    C8      14.575686   19.279240   22.746678 C.3        1 MOL1         0.1003
      26    H12     13.552145   18.883612   22.776732 H          1 MOL1         0.0783
      27    O7      14.829338   20.021483   23.950173 O.3        1 MOL1        -0.5519
      28    H13     15.338862   20.830803   23.694660 H          1 MOL1         0.3769
      29    C9      15.546508   18.080712   22.638616 C.3        1 MOL1         0.1053
      30    H14     16.565525   18.473570   22.685511 H          1 MOL1         0.0783
      31    O8      15.324281   17.181836   23.729688 O.3        1 MOL1        -0.5519
      32    H15     15.258255   17.760768   24.522001 H          1 MOL1         0.3769
      33    C10     15.391987   17.331091   21.294365 C.3        1 MOL1         0.1018
      34    H16     14.482588   16.717298   21.343247 H          1 MOL1         0.0783
      35    C11     15.322835   18.296085   20.075880 C.3        1 MOL1         0.1043
      36    H17     16.325436   18.710059   19.906981 H          1 MOL1         0.0783
      37    O9      14.392161   19.375498   20.341783 O.3        1 MOL1        -0.3740
      38    C12     14.876920   17.605411   18.767810 C.3        1 MOL1         0.0138
      39    H18     15.633894   16.865616   18.476225 H          1 MOL1         0.0794
      40    H19     14.831839   18.357633   17.968864 H          1 MOL1         0.0794
      41    O10     13.603825   16.972479   18.925608 O.3        1 MOL1        -0.5486
      42    H20     12.978391   17.678239   19.203721 H          1 MOL1         0.3769
      43    C13     18.413590   24.027116   20.890244 C.3        1 MOL1         0.2972
      44    H21     18.825500   25.019253   20.664297 H          1 MOL1         0.0751
      45    O11     19.459110   23.067114   21.147800 O.3        1 MOL1        -0.3740
      46    C14     17.450846   24.082542   22.106595 C.3        1 MOL1         0.1003
      47    H22     16.615974   24.739032   21.828859 H          1 MOL1         0.0783
      48    O12     18.092290   24.619683   23.272718 O.3        1 MOL1        -0.5519
      49    H23     18.862108   24.031476   23.480372 H          1 MOL1         0.3769
      50    C15     16.872482   22.676933   22.399353 C.3        1 MOL1         0.1053
      51    H24     17.702278   22.030095   22.712562 H          1 MOL1         0.0783
      52    O13     15.903351   22.764022   23.448327 O.3        1 MOL1        -0.5519
      53    H25     16.303349   23.363993   24.117207 H          1 MOL1         0.3769
      54    C16     16.225714   22.061437   21.132216 C.3        1 MOL1         0.1018
      55    H26     15.270611   22.566792   20.937358 H          1 MOL1         0.0783
      56    C17     17.131529   22.194484   19.876791 C.3        1 MOL1         0.1043
      57    H27     17.966853   21.490144   19.971970 H          1 MOL1         0.0783
      58    O14     17.644497   23.547358   19.766616 O.3        1 MOL1        -0.3740
      59    C18     16.386450   21.870371   18.562911 C.3        1 MOL1         0.0138
      60    H28     16.005537   20.841979   18.609000 H          1 MOL1         0.0794
      61    H29     17.101044   21.920038   17.730577 H          1 MOL1         0.0794
      62    O15     15.308207   22.785059   18.344983 O.3        1 MOL1        -0.5486
      63    H30     15.701946   23.684915   18.389005 H          1 MOL1         0.3769
      64    C19     23.506858   22.626804   21.853971 C.3        1 MOL1         0.2972
      65    H31     24.574690   22.746153   22.077861 H          1 MOL1         0.0751
      66    O16     23.216915   21.317097   21.320641 O.3        1 MOL1        -0.3740
      67    C20     22.659239   22.848970   23.132350 C.3        1 MOL1         0.1003
      68    H32     22.838860   23.878806   23.467514 H          1 MOL1         0.0783
      69    O17     23.030746   21.940499   24.181750 O.3        1 MOL1        -0.5519
      70    H33     23.869184   21.498956   23.902002 H          1 MOL1         0.3769
      71    C21     21.154704   22.699694   22.814503 C.3        1 MOL1         0.1053
      72    H34     20.983542   21.652321   22.543922 H          1 MOL1         0.0783
      73    O18     20.395995   23.030491   23.981032 O.3        1 MOL1        -0.5519
      74    H35     20.854108   22.557821   24.712303 H          1 MOL1         0.3769
      75    C22     20.722329   23.583553   21.616229 C.3        1 MOL1         0.1018
      76    H36     20.638844   24.623401   21.959327 H          1 MOL1         0.0783
      77    C23     21.715807   23.492824   20.422073 C.3        1 MOL1         0.1043
      78    H37     21.580173   22.517065   19.937139 H          1 MOL1         0.0783
      79    O19     23.083860   23.613010   20.887911 O.3        1 MOL1        -0.3740
      80    C24     21.484556   24.581215   19.350320 C.3        1 MOL1         0.0138
      81    H38     20.494245   24.434431   18.899046 H          1 MOL1         0.0794
      82    H39     22.228828   24.454975   18.552578 H          1 MOL1         0.0794
      83    O20     21.579354   25.892105   19.915318 O.3        1 MOL1        -0.5486
      84    H40     22.473044   25.953174   20.320613 H          1 MOL1         0.3769
      85    C25     25.039833   17.615572   20.848478 C.3        1 MOL1         0.2972
      86    H41     25.687706   16.767149   20.592677 H          1 MOL1         0.0751
      87    O21     23.741200   17.179160   21.290566 O.3        1 MOL1        -0.3740
      88    C26     25.677236   18.500879   21.950711 C.3        1 MOL1         0.1003
      89    H42     26.613804   18.900815   21.540674 H          1 MOL1         0.0783
      90    O22     25.976536   17.744300   23.133565 O.3        1 MOL1        -0.5519
      91    H43     25.130626   17.330242   23.441565 H          1 MOL1         0.3769
      92    C27     24.758169   19.701235   22.290123 C.3        1 MOL1         0.1053
      93    H44     23.842752   19.309379   22.755546 H          1 MOL1         0.0783
      94    O23     25.441898   20.557921   23.211444 O.3        1 MOL1        -0.5519
      95    H45     25.896802   19.946789   23.835065 H          1 MOL1         0.3769
      96    C28     24.353262   20.484892   21.009323 C.3        1 MOL1         0.1018
      97    H46     25.203402   21.086443   20.661097 H          1 MOL1         0.0783
      98    C29     23.900026   19.545113   19.857809 C.3        1 MOL1         0.1043
      99    H47     22.908489   19.143515   20.106673 H          1 MOL1         0.0783
     100    O24     24.844552   18.456411   19.692672 O.3        1 MOL1        -0.3740
     101    C30     23.784082   20.273477   18.500268 C.3        1 MOL1         0.0138
     102    H48     23.060774   21.094225   18.593804 H          1 MOL1         0.0794
     103    H49     23.389576   19.569668   17.755281 H          1 MOL1         0.0794
     104    O25     25.053503   20.781055   18.078505 O.3        1 MOL1        -0.5486
     105    H50     25.671069   20.016104   18.095963 H          1 MOL1         0.3769
     106    C31     21.342301   14.008204   22.271571 C.3        1 MOL1         0.2972
     107    H51     20.887589   13.054547   22.569072 H          1 MOL1         0.0751
     108    O26     20.342170   14.934561   21.793774 O.3        1 MOL1        -0.3740
     109    C32     22.100706   14.620969   23.477070 C.3        1 MOL1         0.1003
     110    H52     22.876428   13.901666   23.769641 H          1 MOL1         0.0783
     111    O27     21.220442   14.839356   24.588217 O.3        1 MOL1        -0.5519
     112    H53     20.614256   15.573753   24.320713 H          1 MOL1         0.3769
     113    C33     22.796275   15.945206   23.092719 C.3        1 MOL1         0.1053
     114    H54     22.011701   16.685611   22.919057 H          1 MOL1         0.0783
     115    O28     23.629164   16.379175   24.172363 O.3        1 MOL1        -0.5519
     116    H55     23.053615   16.340802   24.968592 H          1 MOL1         0.3769
     117    C34     23.627426   15.833130   21.792250 C.3        1 MOL1         0.1018
     118    H56     24.604727   15.390910   22.027543 H          1 MOL1         0.0783
     119    C35     22.911761   15.015557   20.681347 C.3        1 MOL1         0.1043
     120    H57     22.130040   15.659143   20.260962 H          1 MOL1         0.0783
     121    O29     22.309911   13.808625   21.218241 O.3        1 MOL1        -0.3740
     122    C36     23.848544   14.604660   19.524089 C.3        1 MOL1         0.0138
     123    H58     24.220114   15.509536   19.025069 H          1 MOL1         0.0794
     124    H59     23.268300   14.038377   18.783296 H          1 MOL1         0.0794
     125    O30     24.944325   13.819491   20.002119 O.3        1 MOL1        -0.5486
     126    H60     24.549070   13.045685   20.462333 H          1 MOL1         0.3769
     127    C1      19.366776   19.529365   21.522923 C.3        1 MOL1        -0.1693
     128    H1      18.514065   19.213854   20.908216 H          1 MOL1         0.0829
     129    H2      19.793090   20.438399   21.088214 H          1 MOL1         0.0829
     130    C2      20.386509   18.395816   21.858975 C.3        1 MOL1        -0.1768
     131    H3      20.552661   17.644823   21.080567 H          1 MOL1         0.0829
     132    H4      21.359837   18.753458   22.217726 H          1 MOL1         0.0829
     133    C3      19.374266   18.012530   22.983107 C.3        1 MOL1         0.1211
     134    H5      18.522770   17.423391   22.623376 H          1 MOL1         0.0786
     135    C4      19.096559   19.542799   23.065912 C.3        1 MOL1        -0.1768
     136    H6      19.826319   20.098666   23.666168 H          1 MOL1         0.0829
     137    H7      18.093555   19.839170   23.385679 H          1 MOL1         0.0829
     138    O1      19.912394   17.434291   24.149149 O.3        1 MOL1        -0.5515
     139    H8      19.268369   17.597779   24.868188 H          1 MOL1         0.3773
@<TRIPOS>BOND
    1     1     2    1
    2     1     3    1
    3     1     4    1
    4     4     5    1
    5     4     6    1
    6     6     7    1
    7     4     8    1
    8     8     9    1
    9     8    10    1
   10    10    11    1
   11     8    12    1
   12    12    13    1
   13    12    14    1
   14    14    15    1
   15     1    16    1
   16    14    16    1
   17    14    17    1
   18    17    18    1
   19    17    19    1
   20    17    20    1
   21    20    21    1
   22    22    23    1
   23    22    24    1
   24    22    25    1
   25    25    26    1
   26    25    27    1
   27    27    28    1
   28    25    29    1
   29    29    30    1
   30    29    31    1
   31    31    32    1
   32     3    33    1
   33    29    33    1
   34    33    34    1
   35    33    35    1
   36    35    36    1
   37    22    37    1
   38    35    37    1
   39    35    38    1
   40    38    39    1
   41    38    40    1
   42    38    41    1
   43    41    42    1
   44    43    44    1
   45    43    45    1
   46    43    46    1
   47    46    47    1
   48    46    48    1
   49    48    49    1
   50    46    50    1
   51    50    51    1
   52    50    52    1
   53    52    53    1
   54    24    54    1
   55    50    54    1
   56    54    55    1
   57    54    56    1
   58    56    57    1
   59    43    58    1
   60    56    58    1
   61    56    59    1
   62    59    60    1
   63    59    61    1
   64    59    62    1
   65    62    63    1
   66    64    65    1
   67    64    66    1
   68    64    67    1
   69    67    68    1
   70    67    69    1
   71    69    70    1
   72    67    71    1
   73    71    72    1
   74    71    73    1
   75    73    74    1
   76    45    75    1
   77    71    75    1
   78    75    76    1
   79    75    77    1
   80    77    78    1
   81    64    79    1
   82    77    79    1
   83    77    80    1
   84    80    81    1
   85    80    82    1
   86    80    83    1
   87    83    84    1
   88    85    86    1
   89    85    87    1
   90    85    88    1
   91    88    89    1
   92    88    90    1
   93    90    91    1
   94    88    92    1
   95    92    93    1
   96    92    94    1
   97    94    95    1
   98    66    96    1
   99    92    96    1
  100    96    97    1
  101    96    98    1
  102    98    99    1
  103    85   100    1
  104    98   100    1
  105    98   101    1
  106   101   102    1
  107   101   103    1
  108   101   104    1
  109   104   105    1
  110   106   107    1
  111    12   108    1
  112   106   108    1
  113   106   109    1
  114   109   110    1
  115   109   111    1
  116   111   112    1
  117   109   113    1
  118   113   114    1
  119   113   115    1
  120   115   116    1
  121    87   117    1
  122   113   117    1
  123   117   118    1
  124   117   119    1
  125   119   120    1
  126   106   121    1
  127   119   121    1
  128   119   122    1
  129   122   123    1
  130   122   124    1
  131   122   125    1
  132   125   126    1
  133   127   128    1
  134   127   129    1
  135   127   130    1
  136   130   131    1
  137   130   132    1
  138   130   133    1
  139   133   134    1
  140   127   135    1
  141   133   135    1
  142   135   136    1
  143   135   137    1
  144   133   138    1
  145   138   139    1
@<TRIPOS>SUBSTRUCTURE
       1 MOL1            1 RESIDUE      1      MOL     
       2 MOL1          139 RESIDUE      1      MOL     
@<SCITEGIC>MOL_PROPERTY
VM2 Rank
SciTegic.value.IntegerValue
8

@<SCITEGIC>MOL_PROPERTY
Conf_Id
SciTegic.value.IntegerValue
17672

@<SCITEGIC>MOL_PROPERTY
Probability
SciTegic.value.DoubleValue
0.76

@<SCITEGIC>MOL_PROPERTY
Sum Probability
SciTegic.value.DoubleValue
8.19

@<SCITEGIC>MOL_PROPERTY
Delta G
SciTegic.value.DoubleValue
0.427

@<SCITEGIC>MOL_PROPERTY
G
SciTegic.value.DoubleValue
538.490

@<SCITEGIC>MOL_PROPERTY
E
SciTegic.value.DoubleValue
359.889

@<SCITEGIC>MOL_PROPERTY
-TS
SciTegic.value.DoubleValue
178.601

@<SCITEGIC>MOL_PROPERTY
U+W
SciTegic.value.DoubleValue
237.378

@<SCITEGIC>MOL_PROPERTY
U
SciTegic.value.DoubleValue
271.150

@<SCITEGIC>MOL_PROPERTY
W
SciTegic.value.DoubleValue
-33.772

@<SCITEGIC>MOL_PROPERTY
W(PB)
SciTegic.value.DoubleValue
-39.840

@<SCITEGIC>MOL_PROPERTY
W(SA)
SciTegic.value.DoubleValue
6.069

@<SCITEGIC>MOL_PROPERTY
Valence
SciTegic.value.DoubleValue
150.613

@<SCITEGIC>MOL_PROPERTY
Coulomb
SciTegic.value.DoubleValue
140.947

@<SCITEGIC>MOL_PROPERTY
VdW
SciTegic.value.DoubleValue
-20.410

@<SCITEGIC>MOL_PROPERTY
VdW6
SciTegic.value.DoubleValue
-164.800

@<SCITEGIC>MOL_PROPERTY
VdW12
SciTegic.value.DoubleValue
144.389

@<SCITEGIC>MOL_PROPERTY
Bond
SciTegic.value.DoubleValue
4.476

@<SCITEGIC>MOL_PROPERTY
Angle
SciTegic.value.DoubleValue
11.107

@<SCITEGIC>MOL_PROPERTY
Pdih
SciTegic.value.DoubleValue
135.030

@<SCITEGIC>MOL_PROPERTY
Idih
SciTegic.value.DoubleValue
0.000

@<SCITEGIC>MOL_PROPERTY
Tether
SciTegic.value.DoubleValue
0.000

