@<TRIPOS>MOLECULE
CD_guest-s20_vm2_single.mol2 : vm2 host+ligand conformer 1
         143         148           2
SMALL
USER_CHARGES
 
@<TRIPOS>ATOM
       1    C1      16.306916   15.188129   20.929823 C.3        1 MOL1         0.2972
       2    H1      15.256510   14.987308   20.683987 H          1 MOL1         0.0751
       3    O1      16.517443   16.569497   21.285982 O.3        1 MOL1        -0.3740
       4    C2      16.765028   14.300960   22.115001 C.3        1 MOL1         0.1003
       5    H2      16.632753   13.254767   21.809840 H          1 MOL1         0.0783
       6    O2      15.981222   14.550575   23.289792 O.3        1 MOL1        -0.5519
       7    H3      16.439089   14.049409   24.001910 H          1 MOL1         0.3769
       8    C3      18.264758   14.516939   22.431005 C.3        1 MOL1         0.1053
       9    H4      18.390037   15.543829   22.802199 H          1 MOL1         0.0783
      10    O3      18.657218   13.583116   23.444251 O.3        1 MOL1        -0.5519
      11    H5      19.462393   13.970653   23.868922 H          1 MOL1         0.3769
      12    C4      19.136576   14.354533   21.152902 C.3        1 MOL1         0.1018
      13    H6      19.193906   13.295138   20.870226 H          1 MOL1         0.0783
      14    C5      18.555815   15.167458   19.964366 C.3        1 MOL1         0.1043
      15    H7      18.689294   16.234627   20.180778 H          1 MOL1         0.0783
      16    O4      17.147227   14.874263   19.799827 O.3        1 MOL1        -0.3740
      17    C6      19.255681   14.866513   18.620653 C.3        1 MOL1         0.0138
      18    H8      20.323296   15.105923   18.709577 H          1 MOL1         0.0794
      19    H9      18.834717   15.525555   17.849674 H          1 MOL1         0.0794
      20    O5      19.085406   13.495740   18.248376 O.3        1 MOL1        -0.5486
      21    H10     18.117353   13.326348   18.275382 H          1 MOL1         0.3769
      22    C7      14.633529   20.272378   21.329118 C.3        1 MOL1         0.2972
      23    H11     13.908491   21.095430   21.304876 H          1 MOL1         0.0751
      24    O6      15.991874   20.753945   21.350712 O.3        1 MOL1        -0.3740
      25    C8      14.401607   19.399033   22.587450 C.3        1 MOL1         0.1003
      26    H12     13.380426   19.000902   22.525971 H          1 MOL1         0.0783
      27    O7      14.534972   20.168368   23.790644 O.3        1 MOL1        -0.5519
      28    H13     14.545591   19.498268   24.510855 H          1 MOL1         0.3769
      29    C9      15.377291   18.200180   22.617616 C.3        1 MOL1         0.1053
      30    H14     16.392369   18.590284   22.760586 H          1 MOL1         0.0783
      31    O8      15.024335   17.328776   23.698679 O.3        1 MOL1        -0.5519
      32    H15     15.506614   16.478295   23.547880 H          1 MOL1         0.3769
      33    C10     15.349969   17.414715   21.284666 C.3        1 MOL1         0.1018
      34    H16     14.419307   16.833488   21.243451 H          1 MOL1         0.0783
      35    C11     15.440445   18.349934   20.047890 C.3        1 MOL1         0.1043
      36    H17     16.454437   18.767702   20.006087 H          1 MOL1         0.0783
      37    O9      14.475251   19.424416   20.171708 O.3        1 MOL1        -0.3740
      38    C12     15.164562   17.628034   18.710448 C.3        1 MOL1         0.0138
      39    H18     15.932498   16.860455   18.549731 H          1 MOL1         0.0794
      40    H19     15.254365   18.355201   17.892484 H          1 MOL1         0.0794
      41    O10     13.863070   17.033822   18.706068 O.3        1 MOL1        -0.5486
      42    H20     13.230379   17.760992   18.899352 H          1 MOL1         0.3769
      43    C13     18.422724   24.045614   20.904394 C.3        1 MOL1         0.2972
      44    H21     18.882226   25.022806   20.707835 H          1 MOL1         0.0751
      45    O11     19.425621   23.022039   21.086423 O.3        1 MOL1        -0.3740
      46    C14     17.487880   24.110143   22.143593 C.3        1 MOL1         0.1003
      47    H22     16.680776   24.813054   21.900796 H          1 MOL1         0.0783
      48    O12     18.186318   24.598894   23.298706 O.3        1 MOL1        -0.5519
      49    H23     18.799599   23.876375   23.583620 H          1 MOL1         0.3769
      50    C15     16.841869   22.723801   22.405167 C.3        1 MOL1         0.1053
      51    H24     17.634956   22.028149   22.712461 H          1 MOL1         0.0783
      52    O13     15.847068   22.814124   23.432931 O.3        1 MOL1        -0.5519
      53    H25     15.491248   21.900792   23.564843 H          1 MOL1         0.3769
      54    C16     16.175162   22.163580   21.122495 C.3        1 MOL1         0.1018
      55    H26     15.221827   22.685361   20.966325 H          1 MOL1         0.0783
      56    C17     17.050137   22.318314   19.848482 C.3        1 MOL1         0.1043
      57    H27     17.862332   21.582973   19.891828 H          1 MOL1         0.0783
      58    O14     17.605080   23.655665   19.781750 O.3        1 MOL1        -0.3740
      59    C18     16.263378   22.071725   18.542253 C.3        1 MOL1         0.0138
      60    H28     15.862587   21.049806   18.551247 H          1 MOL1         0.0794
      61    H29     16.957244   22.144490   17.694206 H          1 MOL1         0.0794
      62    O15     15.200265   23.018002   18.395605 O.3        1 MOL1        -0.5486
      63    H30     15.615589   23.906545   18.463488 H          1 MOL1         0.3769
      64    C19     23.434449   22.507302   22.058610 C.3        1 MOL1         0.2972
      65    H31     24.470894   22.634654   22.395076 H          1 MOL1         0.0751
      66    O16     23.259234   21.274815   21.328114 O.3        1 MOL1        -0.3740
      67    C20     22.468164   22.514326   23.272206 C.3        1 MOL1         0.1003
      68    H32     22.565560   23.492931   23.759571 H          1 MOL1         0.0783
      69    O17     22.836878   21.492106   24.213941 O.3        1 MOL1        -0.5519
      70    H33     22.014050   20.992781   24.461692 H          1 MOL1         0.3769
      71    C21     20.998424   22.371761   22.798052 C.3        1 MOL1         0.1053
      72    H34     20.873322   21.371935   22.361636 H          1 MOL1         0.0783
      73    O18     20.108609   22.536050   23.909340 O.3        1 MOL1        -0.5519
      74    H35     20.143256   21.679022   24.410074 H          1 MOL1         0.3769
      75    C22     20.662326   23.425085   21.709355 C.3        1 MOL1         0.1018
      76    H36     20.574931   24.407968   22.190634 H          1 MOL1         0.0783
      77    C23     21.741164   23.489054   20.593107 C.3        1 MOL1         0.1043
      78    H37     21.676365   22.568957   19.997038 H          1 MOL1         0.0783
      79    O19     23.057295   23.596109   21.189148 O.3        1 MOL1        -0.3740
      80    C24     21.563502   24.683713   19.629350 C.3        1 MOL1         0.0138
      81    H38     20.621480   24.561916   19.078400 H          1 MOL1         0.0794
      82    H39     22.377025   24.665472   18.891755 H          1 MOL1         0.0794
      83    O20     21.563518   25.926663   20.337796 O.3        1 MOL1        -0.5486
      84    H40     22.413054   25.961665   20.831343 H          1 MOL1         0.3769
      85    C25     25.148321   17.660118   20.695940 C.3        1 MOL1         0.2972
      86    H41     25.802174   16.820921   20.426126 H          1 MOL1         0.0751
      87    O21     23.802270   17.212882   20.963550 O.3        1 MOL1        -0.3740
      88    C26     25.711578   18.440410   21.913559 C.3        1 MOL1         0.1003
      89    H42     26.670318   18.873652   21.601070 H          1 MOL1         0.0783
      90    O22     25.949072   17.566514   23.027733 O.3        1 MOL1        -0.5519
      91    H43     25.061835   17.347521   23.406930 H          1 MOL1         0.3769
      92    C27     24.765893   19.612829   22.289060 C.3        1 MOL1         0.1053
      93    H44     23.820915   19.186169   22.653156 H          1 MOL1         0.0783
      94    O23     25.364108   20.409603   23.318185 O.3        1 MOL1        -0.5519
      95    H45     24.609284   20.818908   23.808251 H          1 MOL1         0.3769
      96    C28     24.446349   20.503030   21.051653 C.3        1 MOL1         0.1018
      97    H46     25.302835   21.156367   20.839013 H          1 MOL1         0.0783
      98    C29     24.118926   19.676395   19.776940 C.3        1 MOL1         0.1043
      99    H47     23.108780   19.260114   19.887473 H          1 MOL1         0.0783
     100    O24     25.075846   18.600120   19.604833 O.3        1 MOL1        -0.3740
     101    C30     24.132332   20.529306   18.489032 C.3        1 MOL1         0.0138
     102    H48     23.401991   21.343114   18.590512 H          1 MOL1         0.0794
     103    H49     23.811128   19.901266   17.647395 H          1 MOL1         0.0794
     104    O25     25.435837   21.063893   18.239444 O.3        1 MOL1        -0.5486
     105    H50     26.049903   20.295951   18.246800 H          1 MOL1         0.3769
     106    C31     21.411132   14.058559   22.067058 C.3        1 MOL1         0.2972
     107    H51     20.961887   13.116530   22.405170 H          1 MOL1         0.0751
     108    O26     20.449294   14.900507   21.395709 O.3        1 MOL1        -0.3740
     109    C32     22.001171   14.841854   23.266662 C.3        1 MOL1         0.1003
     110    H52     22.800242   14.225784   23.698625 H          1 MOL1         0.0783
     111    O27     20.993075   15.062233   24.267402 O.3        1 MOL1        -0.5519
     112    H53     20.980071   16.035947   24.467752 H          1 MOL1         0.3769
     113    C33     22.638298   16.170286   22.782710 C.3        1 MOL1         0.1053
     114    H54     21.839917   16.818726   22.405304 H          1 MOL1         0.0783
     115    O28     23.297596   16.822123   23.874766 O.3        1 MOL1        -0.5519
     116    H55     22.574887   17.277274   24.383576 H          1 MOL1         0.3769
     117    C34     23.635314   15.938469   21.615925 C.3        1 MOL1         0.1018
     118    H56     24.579095   15.553725   22.023687 H          1 MOL1         0.0783
     119    C35     23.088615   14.962897   20.534642 C.3        1 MOL1         0.1043
     120    H57     22.323977   15.492834   19.951510 H          1 MOL1         0.0783
     121    O29     22.497745   13.794648   21.155049 O.3        1 MOL1        -0.3740
     122    C36     24.170071   14.476250   19.544633 C.3        1 MOL1         0.0138
     123    H58     24.551537   15.337167   18.979862 H          1 MOL1         0.0794
     124    H59     23.704410   13.792406   18.822280 H          1 MOL1         0.0794
     125    O30     25.241897   13.820865   20.228718 O.3        1 MOL1        -0.5486
     126    H60     24.833703   13.086751   20.739747 H          1 MOL1         0.3769
     127    C1      20.237152   18.846471   24.387717 C.2        1 MOL1         0.6132
     128    O1      20.553893   19.951310   24.787074 O.co2      1 MOL1        -0.6749
     129    O2      20.819401   17.824760   24.701662 O.co2      1 MOL1        -0.6749
     130    C2      19.073950   18.743263   23.406926 C.3        1 MOL1        -0.1955
     131    H1      18.518801   19.688634   23.430152 H          1 MOL1         0.0733
     132    H2      18.399800   17.962637   23.776251 H          1 MOL1         0.0733
     133    C3      19.525874   18.418353   21.996001 C.2        1 MOL1        -0.1395
     134    H3      19.862207   17.397524   21.846681 H          1 MOL1         0.0816
     135    C4      19.550012   19.289730   20.983968 C.2        1 MOL1        -0.1394
     136    H4      19.216279   20.313339   21.135608 H          1 MOL1         0.0816
     137    C5      20.084603   18.973184   19.603820 C.3        1 MOL1        -0.1826
     138    H5      20.768756   19.772274   19.289497 H          1 MOL1         0.0736
     139    H6      20.674817   18.046749   19.628619 H          1 MOL1         0.0736
     140    C6      18.957482   18.833443   18.561951 C.3        1 MOL1        -0.2882
     141    H7      19.374335   18.621328   17.569210 H          1 MOL1         0.0749
     142    H8      18.279811   18.013999   18.825460 H          1 MOL1         0.0749
     143    H9      18.370403   19.756678   18.492642 H          1 MOL1         0.0749
@<TRIPOS>BOND
    1     1     2    1
    2     1     3    1
    3     1     4    1
    4     4     5    1
    5     4     6    1
    6     6     7    1
    7     4     8    1
    8     8     9    1
    9     8    10    1
   10    10    11    1
   11     8    12    1
   12    12    13    1
   13    12    14    1
   14    14    15    1
   15     1    16    1
   16    14    16    1
   17    14    17    1
   18    17    18    1
   19    17    19    1
   20    17    20    1
   21    20    21    1
   22    22    23    1
   23    22    24    1
   24    22    25    1
   25    25    26    1
   26    25    27    1
   27    27    28    1
   28    25    29    1
   29    29    30    1
   30    29    31    1
   31    31    32    1
   32     3    33    1
   33    29    33    1
   34    33    34    1
   35    33    35    1
   36    35    36    1
   37    22    37    1
   38    35    37    1
   39    35    38    1
   40    38    39    1
   41    38    40    1
   42    38    41    1
   43    41    42    1
   44    43    44    1
   45    43    45    1
   46    43    46    1
   47    46    47    1
   48    46    48    1
   49    48    49    1
   50    46    50    1
   51    50    51    1
   52    50    52    1
   53    52    53    1
   54    24    54    1
   55    50    54    1
   56    54    55    1
   57    54    56    1
   58    56    57    1
   59    43    58    1
   60    56    58    1
   61    56    59    1
   62    59    60    1
   63    59    61    1
   64    59    62    1
   65    62    63    1
   66    64    65    1
   67    64    66    1
   68    64    67    1
   69    67    68    1
   70    67    69    1
   71    69    70    1
   72    67    71    1
   73    71    72    1
   74    71    73    1
   75    73    74    1
   76    45    75    1
   77    71    75    1
   78    75    76    1
   79    75    77    1
   80    77    78    1
   81    64    79    1
   82    77    79    1
   83    77    80    1
   84    80    81    1
   85    80    82    1
   86    80    83    1
   87    83    84    1
   88    85    86    1
   89    85    87    1
   90    85    88    1
   91    88    89    1
   92    88    90    1
   93    90    91    1
   94    88    92    1
   95    92    93    1
   96    92    94    1
   97    94    95    1
   98    66    96    1
   99    92    96    1
  100    96    97    1
  101    96    98    1
  102    98    99    1
  103    85   100    1
  104    98   100    1
  105    98   101    1
  106   101   102    1
  107   101   103    1
  108   101   104    1
  109   104   105    1
  110   106   107    1
  111    12   108    1
  112   106   108    1
  113   106   109    1
  114   109   110    1
  115   109   111    1
  116   111   112    1
  117   109   113    1
  118   113   114    1
  119   113   115    1
  120   115   116    1
  121    87   117    1
  122   113   117    1
  123   117   118    1
  124   117   119    1
  125   119   120    1
  126   106   121    1
  127   119   121    1
  128   119   122    1
  129   122   123    1
  130   122   124    1
  131   122   125    1
  132   125   126    1
  133   127   128    1
  134   127   129    2
  135   127   130    1
  136   130   131    1
  137   130   132    1
  138   130   133    1
  139   133   134    1
  140   133   135    2
  141   135   136    1
  142   135   137    1
  143   137   138    1
  144   137   139    1
  145   137   140    1
  146   140   141    1
  147   140   142    1
  148   140   143    1
@<TRIPOS>SUBSTRUCTURE
       1 MOL1            1 RESIDUE      1      MOL     
       2 MOL1          143 RESIDUE      1      MOL     
@<SCITEGIC>MOL_PROPERTY
VM2 Rank
SciTegic.value.IntegerValue
1

@<SCITEGIC>MOL_PROPERTY
Conf_Id
SciTegic.value.IntegerValue
11137

@<SCITEGIC>MOL_PROPERTY
Probability
SciTegic.value.DoubleValue
1.07

@<SCITEGIC>MOL_PROPERTY
Sum Probability
SciTegic.value.DoubleValue
1.07

@<SCITEGIC>MOL_PROPERTY
Delta G
SciTegic.value.DoubleValue
0.000

@<SCITEGIC>MOL_PROPERTY
G
SciTegic.value.DoubleValue
490.294

@<SCITEGIC>MOL_PROPERTY
E
SciTegic.value.DoubleValue
304.907

@<SCITEGIC>MOL_PROPERTY
-TS
SciTegic.value.DoubleValue
185.387

@<SCITEGIC>MOL_PROPERTY
U+W
SciTegic.value.DoubleValue
178.819

@<SCITEGIC>MOL_PROPERTY
U
SciTegic.value.DoubleValue
239.792

@<SCITEGIC>MOL_PROPERTY
W
SciTegic.value.DoubleValue
-60.973

@<SCITEGIC>MOL_PROPERTY
W(PB)
SciTegic.value.DoubleValue
-67.055

@<SCITEGIC>MOL_PROPERTY
W(SA)
SciTegic.value.DoubleValue
6.081

@<SCITEGIC>MOL_PROPERTY
Valence
SciTegic.value.DoubleValue
158.933

@<SCITEGIC>MOL_PROPERTY
Coulomb
SciTegic.value.DoubleValue
101.232

@<SCITEGIC>MOL_PROPERTY
VdW
SciTegic.value.DoubleValue
-20.373

@<SCITEGIC>MOL_PROPERTY
VdW6
SciTegic.value.DoubleValue
-181.247

@<SCITEGIC>MOL_PROPERTY
VdW12
SciTegic.value.DoubleValue
160.875

@<SCITEGIC>MOL_PROPERTY
Bond
SciTegic.value.DoubleValue
5.041

@<SCITEGIC>MOL_PROPERTY
Angle
SciTegic.value.DoubleValue
12.050

@<SCITEGIC>MOL_PROPERTY
Pdih
SciTegic.value.DoubleValue
141.834

@<SCITEGIC>MOL_PROPERTY
Idih
SciTegic.value.DoubleValue
0.009

@<SCITEGIC>MOL_PROPERTY
Tether
SciTegic.value.DoubleValue
0.000

@<TRIPOS>MOLECULE
CD_guest-s20_vm2_single.mol2 : vm2 host+ligand conformer 2
         143         148           2
SMALL
USER_CHARGES
 
@<TRIPOS>ATOM
       1    C1      16.272295   15.078645   21.491279 C.3        1 MOL1         0.2972
       2    H1      15.192346   14.913088   21.388834 H          1 MOL1         0.0751
       3    O1      16.615841   16.470422   21.329994 O.3        1 MOL1        -0.3740
       4    C2      16.749853   14.590423   22.879979 C.3        1 MOL1         0.1003
       5    H2      16.537500   13.514770   22.935546 H          1 MOL1         0.0783
       6    O2      16.052361   15.258787   23.939832 O.3        1 MOL1        -0.5519
       7    H3      16.543790   15.007912   24.754093 H          1 MOL1         0.3769
       8    C3      18.274929   14.777674   23.047340 C.3        1 MOL1         0.1053
       9    H4      18.482108   15.854495   23.102817 H          1 MOL1         0.0783
      10    O3      18.682738   14.137430   24.261345 O.3        1 MOL1        -0.5519
      11    H5      19.600285   14.456990   24.448424 H          1 MOL1         0.3769
      12    C4      19.063398   14.194567   21.842924 C.3        1 MOL1         0.1018
      13    H6      19.118069   13.101396   21.931248 H          1 MOL1         0.0783
      14    C5      18.431105   14.551711   20.470362 C.3        1 MOL1         0.1043
      15    H7      18.642741   15.605294   20.250221 H          1 MOL1         0.0783
      16    O4      16.999173   14.320656   20.502086 O.3        1 MOL1        -0.3740
      17    C6      19.019424   13.692924   19.331652 C.3        1 MOL1         0.0138
      18    H8      18.785983   12.635962   19.517110 H          1 MOL1         0.0794
      19    H9      20.112685   13.797818   19.328150 H          1 MOL1         0.0794
      20    O5      18.484830   14.110239   18.074213 O.3        1 MOL1        -0.5486
      21    H10     17.507445   14.095706   18.175984 H          1 MOL1         0.3769
      22    C7      14.900111   20.161925   20.447803 C.3        1 MOL1         0.2972
      23    H11     14.264512   20.968054   20.058941 H          1 MOL1         0.0751
      24    O6      16.107419   20.676035   21.040806 O.3        1 MOL1        -0.3740
      25    C8      14.147673   19.341518   21.527406 C.3        1 MOL1         0.1003
      26    H12     13.238842   18.940898   21.060669 H          1 MOL1         0.0783
      27    O7      13.775527   20.196985   22.621675 O.3        1 MOL1        -0.5519
      28    H13     14.597268   20.652498   22.932476 H          1 MOL1         0.3769
      29    C9      15.002614   18.136929   22.011733 C.3        1 MOL1         0.1053
      30    H14     15.844444   18.532960   22.596004 H          1 MOL1         0.0783
      31    O8      14.212086   17.262692   22.826650 O.3        1 MOL1        -0.5519
      32    H15     14.840275   16.623633   23.245423 H          1 MOL1         0.3769
      33    C10     15.578287   17.328369   20.816737 C.3        1 MOL1         0.1018
      34    H16     14.771553   16.751944   20.344496 H          1 MOL1         0.0783
      35    C11     16.221475   18.236040   19.738433 C.3        1 MOL1         0.1043
      36    H17     17.142265   18.676667   20.140636 H          1 MOL1         0.0783
      37    O9      15.274097   19.269533   19.379047 O.3        1 MOL1        -0.3740
      38    C12     16.569484   17.460582   18.450578 C.3        1 MOL1         0.0138
      39    H18     15.654077   17.019791   18.034158 H          1 MOL1         0.0794
      40    H19     17.256076   16.639812   18.693592 H          1 MOL1         0.0794
      41    O10     17.177279   18.339022   17.501873 O.3        1 MOL1        -0.5486
      42    H20     16.603507   19.135461   17.467592 H          1 MOL1         0.3769
      43    C13     18.303795   24.101383   21.542779 C.3        1 MOL1         0.2972
      44    H21     18.726560   25.110449   21.632220 H          1 MOL1         0.0751
      45    O11     19.336977   23.094494   21.444482 O.3        1 MOL1        -0.3740
      46    C14     17.368832   23.773594   22.735238 C.3        1 MOL1         0.1003
      47    H22     16.504809   24.446911   22.662029 H          1 MOL1         0.0783
      48    O12     18.006132   23.991458   24.001020 O.3        1 MOL1        -0.5519
      49    H23     18.815109   23.420539   24.021703 H          1 MOL1         0.3769
      50    C15     16.846182   22.322536   22.607281 C.3        1 MOL1         0.1053
      51    H24     17.699563   21.634371   22.692932 H          1 MOL1         0.0783
      52    O13     15.903354   22.058066   23.652081 O.3        1 MOL1        -0.5519
      53    H25     16.323381   22.408421   24.468801 H          1 MOL1         0.3769
      54    C16     16.170543   22.101189   21.229438 C.3        1 MOL1         0.1018
      55    H26     15.168890   22.549731   21.267632 H          1 MOL1         0.0783
      56    C17     16.975940   22.699315   20.035021 C.3        1 MOL1         0.1043
      57    H27     17.822724   22.038228   19.821540 H          1 MOL1         0.0783
      58    O14     17.480477   24.018735   20.360409 O.3        1 MOL1        -0.3740
      59    C18     16.151670   22.822518   18.734054 C.3        1 MOL1         0.0138
      60    H28     15.872499   21.818716   18.388700 H          1 MOL1         0.0794
      61    H29     16.785920   23.268212   17.956107 H          1 MOL1         0.0794
      62    O15     14.980823   23.619383   18.936005 O.3        1 MOL1        -0.5486
      63    H30     15.294975   24.494080   19.256418 H          1 MOL1         0.3769
      64    C19     23.430218   22.497152   21.895812 C.3        1 MOL1         0.2972
      65    H31     24.500817   22.605099   22.108016 H          1 MOL1         0.0751
      66    O16     23.160525   21.312275   21.113345 O.3        1 MOL1        -0.3740
      67    C20     22.617748   22.428507   23.216491 C.3        1 MOL1         0.1003
      68    H32     22.775512   23.378150   23.743806 H          1 MOL1         0.0783
      69    O17     23.103465   21.360034   24.045780 O.3        1 MOL1        -0.5519
      70    H33     22.345506   20.998762   24.575386 H          1 MOL1         0.3769
      71    C21     21.098261   22.311122   22.918622 C.3        1 MOL1         0.1053
      72    H34     20.905161   21.345667   22.433443 H          1 MOL1         0.0783
      73    O18     20.356724   22.409121   24.139776 O.3        1 MOL1        -0.5519
      74    H35     20.505013   21.561747   24.635539 H          1 MOL1         0.3769
      75    C22     20.639780   23.442017   21.958064 C.3        1 MOL1         0.1018
      76    H36     20.614466   24.384462   22.521139 H          1 MOL1         0.0783
      77    C23     21.578180   23.593855   20.728654 C.3        1 MOL1         0.1043
      78    H37     21.430276   22.728101   20.070151 H          1 MOL1         0.0783
      79    O19     22.960326   23.646178   21.158633 O.3        1 MOL1        -0.3740
      80    C24     21.294191   24.867357   19.900930 C.3        1 MOL1         0.0138
      81    H38     20.280185   24.804259   19.483795 H          1 MOL1         0.0794
      82    H39     21.994170   24.902121   19.055409 H          1 MOL1         0.0794
      83    O20     21.424775   26.045191   20.702881 O.3        1 MOL1        -0.5486
      84    H40     22.334389   26.023380   21.075388 H          1 MOL1         0.3769
      85    C25     24.890710   17.623825   20.336480 C.3        1 MOL1         0.2972
      86    H41     25.493719   16.771906   19.997157 H          1 MOL1         0.0751
      87    O21     23.595122   17.191462   20.809000 O.3        1 MOL1        -0.3740
      88    C26     25.633500   18.429653   21.434703 C.3        1 MOL1         0.1003
      89    H42     26.538864   18.841546   20.970815 H          1 MOL1         0.0783
      90    O22     26.029223   17.584610   22.525795 O.3        1 MOL1        -0.5519
      91    H43     25.207583   17.394216   23.043168 H          1 MOL1         0.3769
      92    C27     24.766382   19.626016   21.911330 C.3        1 MOL1         0.1053
      93    H44     23.876618   19.223356   22.414680 H          1 MOL1         0.0783
      94    O23     25.521630   20.427118   22.827143 O.3        1 MOL1        -0.5519
      95    H45     24.852987   20.805520   23.449308 H          1 MOL1         0.3769
      96    C28     24.287147   20.497913   20.710962 C.3        1 MOL1         0.1018
      97    H46     25.117691   21.125654   20.362510 H          1 MOL1         0.0783
      98    C29     23.771981   19.640322   19.520452 C.3        1 MOL1         0.1043
      99    H47     22.785085   19.244970   19.787922 H          1 MOL1         0.0783
     100    O24     24.673973   18.538840   19.242679 O.3        1 MOL1        -0.3740
     101    C30     23.608717   20.455734   18.218871 C.3        1 MOL1         0.0138
     102    H48     22.911812   21.284893   18.400571 H          1 MOL1         0.0794
     103    H49     23.159113   19.809676   17.453098 H          1 MOL1         0.0794
     104    O25     24.869378   20.958797   17.765981 O.3        1 MOL1        -0.5486
     105    H50     25.466970   20.180092   17.708671 H          1 MOL1         0.3769
     106    C31     21.457300   14.033275   22.408968 C.3        1 MOL1         0.2972
     107    H51     21.102767   13.099852   22.864013 H          1 MOL1         0.0751
     108    O26     20.371388   14.798881   21.845486 O.3        1 MOL1        -0.3740
     109    C32     22.197398   14.896429   23.462703 C.3        1 MOL1         0.1003
     110    H52     23.071318   14.324724   23.800428 H          1 MOL1         0.0783
     111    O27     21.343855   15.149666   24.590262 O.3        1 MOL1        -0.5519
     112    H53     21.461970   16.101638   24.850413 H          1 MOL1         0.3769
     113    C33     22.713289   16.210633   22.825285 C.3        1 MOL1         0.1053
     114    H54     21.840932   16.813171   22.553296 H          1 MOL1         0.0783
     115    O28     23.525446   16.922564   23.767561 O.3        1 MOL1        -0.5519
     116    H55     22.895062   17.375292   24.389221 H          1 MOL1         0.3769
     117    C34     23.526863   15.941913   21.530277 C.3        1 MOL1         0.1018
     118    H56     24.522452   15.573340   21.809063 H          1 MOL1         0.0783
     119    C35     22.835961   14.913970   20.589669 C.3        1 MOL1         0.1043
     120    H57     21.970522   15.403947   20.123423 H          1 MOL1         0.0783
     121    O29     22.393337   13.756670   21.344972 O.3        1 MOL1        -0.3740
     122    C36     23.752130   14.412568   19.451379 C.3        1 MOL1         0.0138
     123    H58     24.013145   15.259515   18.803069 H          1 MOL1         0.0794
     124    H59     23.192056   13.693302   18.838930 H          1 MOL1         0.0794
     125    O30     24.938354   13.804553   19.970498 O.3        1 MOL1        -0.5486
     126    H60     24.638580   13.087339   20.572450 H          1 MOL1         0.3769
     127    C1      20.655408   18.869058   25.047978 C.2        1 MOL1         0.6132
     128    O1      21.017227   20.000087   25.311580 O.co2      1 MOL1        -0.6749
     129    O2      21.353152   17.884093   25.203594 O.co2      1 MOL1        -0.6749
     130    C2      19.255524   18.683506   24.470975 C.3        1 MOL1        -0.1955
     131    H1      18.635207   19.532236   24.781444 H          1 MOL1         0.0733
     132    H2      18.821628   17.798956   24.951079 H          1 MOL1         0.0733
     133    C3      19.184938   18.520677   22.960565 C.2        1 MOL1        -0.1395
     134    H3      18.213740   18.203124   22.588392 H          1 MOL1         0.0816
     135    C4      20.192569   18.700602   22.100289 C.2        1 MOL1        -0.1394
     136    H4      21.177381   19.015192   22.443293 H          1 MOL1         0.0816
     137    C5      20.081329   18.450762   20.614615 C.3        1 MOL1        -0.1826
     138    H5      20.976773   17.930353   20.253351 H          1 MOL1         0.0736
     139    H6      19.234961   17.786244   20.405837 H          1 MOL1         0.0736
     140    C6      19.890126   19.770585   19.848336 C.3        1 MOL1        -0.2882
     141    H7      19.783342   19.586844   18.771642 H          1 MOL1         0.0749
     142    H8      18.986631   20.277036   20.203033 H          1 MOL1         0.0749
     143    H9      20.740208   20.444224   20.005654 H          1 MOL1         0.0749
@<TRIPOS>BOND
    1     1     2    1
    2     1     3    1
    3     1     4    1
    4     4     5    1
    5     4     6    1
    6     6     7    1
    7     4     8    1
    8     8     9    1
    9     8    10    1
   10    10    11    1
   11     8    12    1
   12    12    13    1
   13    12    14    1
   14    14    15    1
   15     1    16    1
   16    14    16    1
   17    14    17    1
   18    17    18    1
   19    17    19    1
   20    17    20    1
   21    20    21    1
   22    22    23    1
   23    22    24    1
   24    22    25    1
   25    25    26    1
   26    25    27    1
   27    27    28    1
   28    25    29    1
   29    29    30    1
   30    29    31    1
   31    31    32    1
   32     3    33    1
   33    29    33    1
   34    33    34    1
   35    33    35    1
   36    35    36    1
   37    22    37    1
   38    35    37    1
   39    35    38    1
   40    38    39    1
   41    38    40    1
   42    38    41    1
   43    41    42    1
   44    43    44    1
   45    43    45    1
   46    43    46    1
   47    46    47    1
   48    46    48    1
   49    48    49    1
   50    46    50    1
   51    50    51    1
   52    50    52    1
   53    52    53    1
   54    24    54    1
   55    50    54    1
   56    54    55    1
   57    54    56    1
   58    56    57    1
   59    43    58    1
   60    56    58    1
   61    56    59    1
   62    59    60    1
   63    59    61    1
   64    59    62    1
   65    62    63    1
   66    64    65    1
   67    64    66    1
   68    64    67    1
   69    67    68    1
   70    67    69    1
   71    69    70    1
   72    67    71    1
   73    71    72    1
   74    71    73    1
   75    73    74    1
   76    45    75    1
   77    71    75    1
   78    75    76    1
   79    75    77    1
   80    77    78    1
   81    64    79    1
   82    77    79    1
   83    77    80    1
   84    80    81    1
   85    80    82    1
   86    80    83    1
   87    83    84    1
   88    85    86    1
   89    85    87    1
   90    85    88    1
   91    88    89    1
   92    88    90    1
   93    90    91    1
   94    88    92    1
   95    92    93    1
   96    92    94    1
   97    94    95    1
   98    66    96    1
   99    92    96    1
  100    96    97    1
  101    96    98    1
  102    98    99    1
  103    85   100    1
  104    98   100    1
  105    98   101    1
  106   101   102    1
  107   101   103    1
  108   101   104    1
  109   104   105    1
  110   106   107    1
  111    12   108    1
  112   106   108    1
  113   106   109    1
  114   109   110    1
  115   109   111    1
  116   111   112    1
  117   109   113    1
  118   113   114    1
  119   113   115    1
  120   115   116    1
  121    87   117    1
  122   113   117    1
  123   117   118    1
  124   117   119    1
  125   119   120    1
  126   106   121    1
  127   119   121    1
  128   119   122    1
  129   122   123    1
  130   122   124    1
  131   122   125    1
  132   125   126    1
  133   127   128    1
  134   127   129    2
  135   127   130    1
  136   130   131    1
  137   130   132    1
  138   130   133    1
  139   133   134    1
  140   133   135    2
  141   135   136    1
  142   135   137    1
  143   137   138    1
  144   137   139    1
  145   137   140    1
  146   140   141    1
  147   140   142    1
  148   140   143    1
@<TRIPOS>SUBSTRUCTURE
       1 MOL1            1 RESIDUE      1      MOL     
       2 MOL1          143 RESIDUE      1      MOL     
@<SCITEGIC>MOL_PROPERTY
VM2 Rank
SciTegic.value.IntegerValue
2

@<SCITEGIC>MOL_PROPERTY
Conf_Id
SciTegic.value.IntegerValue
23042

@<SCITEGIC>MOL_PROPERTY
Probability
SciTegic.value.DoubleValue
1.02

@<SCITEGIC>MOL_PROPERTY
Sum Probability
SciTegic.value.DoubleValue
2.09

@<SCITEGIC>MOL_PROPERTY
Delta G
SciTegic.value.DoubleValue
0.030

@<SCITEGIC>MOL_PROPERTY
G
SciTegic.value.DoubleValue
490.324

@<SCITEGIC>MOL_PROPERTY
E
SciTegic.value.DoubleValue
305.079

@<SCITEGIC>MOL_PROPERTY
-TS
SciTegic.value.DoubleValue
185.245

@<SCITEGIC>MOL_PROPERTY
U+W
SciTegic.value.DoubleValue
178.991

@<SCITEGIC>MOL_PROPERTY
U
SciTegic.value.DoubleValue
240.952

@<SCITEGIC>MOL_PROPERTY
W
SciTegic.value.DoubleValue
-61.961

@<SCITEGIC>MOL_PROPERTY
W(PB)
SciTegic.value.DoubleValue
-67.948

@<SCITEGIC>MOL_PROPERTY
W(SA)
SciTegic.value.DoubleValue
5.986

@<SCITEGIC>MOL_PROPERTY
Valence
SciTegic.value.DoubleValue
158.708

@<SCITEGIC>MOL_PROPERTY
Coulomb
SciTegic.value.DoubleValue
102.539

@<SCITEGIC>MOL_PROPERTY
VdW
SciTegic.value.DoubleValue
-20.295

@<SCITEGIC>MOL_PROPERTY
VdW6
SciTegic.value.DoubleValue
-182.078

@<SCITEGIC>MOL_PROPERTY
VdW12
SciTegic.value.DoubleValue
161.783

@<SCITEGIC>MOL_PROPERTY
Bond
SciTegic.value.DoubleValue
5.231

@<SCITEGIC>MOL_PROPERTY
Angle
SciTegic.value.DoubleValue
12.636

@<SCITEGIC>MOL_PROPERTY
Pdih
SciTegic.value.DoubleValue
140.836

@<SCITEGIC>MOL_PROPERTY
Idih
SciTegic.value.DoubleValue
0.004

@<SCITEGIC>MOL_PROPERTY
Tether
SciTegic.value.DoubleValue
0.000

@<TRIPOS>MOLECULE
CD_guest-s20_vm2_single.mol2 : vm2 host+ligand conformer 3
         143         148           2
SMALL
USER_CHARGES
 
@<TRIPOS>ATOM
       1    C1      16.275394   15.215714   21.386682 C.3        1 MOL1         0.2972
       2    H1      15.203506   15.026159   21.247654 H          1 MOL1         0.0751
       3    O1      16.609122   16.597102   21.144683 O.3        1 MOL1        -0.3740
       4    C2      16.696433   14.837762   22.827855 C.3        1 MOL1         0.1003
       5    H2      16.495301   13.766094   22.955073 H          1 MOL1         0.0783
       6    O2      15.945185   15.573040   23.803528 O.3        1 MOL1        -0.5519
       7    H3      16.413463   15.404830   24.652049 H          1 MOL1         0.3769
       8    C3      18.211082   15.061696   23.041656 C.3        1 MOL1         0.1053
       9    H4      18.405396   16.142322   23.008550 H          1 MOL1         0.0783
      10    O3      18.583959   14.536920   24.320875 O.3        1 MOL1        -0.5519
      11    H5      19.514033   14.833957   24.484138 H          1 MOL1         0.3769
      12    C4      19.048249   14.385705   21.923462 C.3        1 MOL1         0.1018
      13    H6      19.080260   13.300896   22.090757 H          1 MOL1         0.0783
      14    C5      18.484953   14.655440   20.502225 C.3        1 MOL1         0.1043
      15    H7      18.695543   15.697393   20.230629 H          1 MOL1         0.0783
      16    O4      17.056810   14.405029   20.484582 O.3        1 MOL1        -0.3740
      17    C6      19.129098   13.741543   19.439856 C.3        1 MOL1         0.0138
      18    H8      18.865275   12.696837   19.652088 H          1 MOL1         0.0794
      19    H9      20.221873   13.828877   19.500035 H          1 MOL1         0.0794
      20    O5      18.680934   14.118299   18.136194 O.3        1 MOL1        -0.5486
      21    H10     17.698674   14.147589   18.181379 H          1 MOL1         0.3769
      22    C7      15.034769   20.243097   20.024547 C.3        1 MOL1         0.2972
      23    H11     14.482653   21.087425   19.592269 H          1 MOL1         0.0751
      24    O6      16.258838   20.681219   20.651573 O.3        1 MOL1        -0.3740
      25    C8      14.159290   19.462988   21.043990 C.3        1 MOL1         0.1003
      26    H12     13.310286   19.046767   20.486854 H          1 MOL1         0.0783
      27    O7      13.652320   20.334526   22.065753 O.3        1 MOL1        -0.5519
      28    H13     14.420340   20.564507   22.645447 H          1 MOL1         0.3769
      29    C9      14.957546   18.274321   21.644659 C.3        1 MOL1         0.1053
      30    H14     15.774056   18.685998   22.254174 H          1 MOL1         0.0783
      31    O8      14.109736   17.455786   22.459992 O.3        1 MOL1        -0.5519
      32    H15     14.708122   16.848658   22.961464 H          1 MOL1         0.3769
      33    C10     15.583208   17.397052   20.527058 C.3        1 MOL1         0.1018
      34    H16     14.799770   16.776268   20.072546 H          1 MOL1         0.0783
      35    C11     16.267851   18.227291   19.408043 C.3        1 MOL1         0.1043
      36    H17     17.203221   18.638093   19.805075 H          1 MOL1         0.0783
      37    O9      15.399144   19.309140   18.986764 O.3        1 MOL1        -0.3740
      38    C12     16.620819   17.386379   18.161345 C.3        1 MOL1         0.0138
      39    H18     17.312059   16.585693   18.454378 H          1 MOL1         0.0794
      40    H19     17.147668   18.027121   17.441817 H          1 MOL1         0.0794
      41    O10     15.445870   16.829950   17.563721 O.3        1 MOL1        -0.5486
      42    H20     14.844060   17.587547   17.390194 H          1 MOL1         0.3769
      43    C13     18.282243   23.872115   22.293394 C.3        1 MOL1         0.2972
      44    H21     18.627401   24.821118   22.722295 H          1 MOL1         0.0751
      45    O11     19.379315   22.998757   21.951209 O.3        1 MOL1        -0.3740
      46    C14     17.347020   23.134132   23.283213 C.3        1 MOL1         0.1003
      47    H22     16.451966   23.756647   23.411843 H          1 MOL1         0.0783
      48    O12     17.963391   22.948057   24.564785 O.3        1 MOL1        -0.5519
      49    H23     18.922458   22.763112   24.405406 H          1 MOL1         0.3769
      50    C15     16.895199   21.781154   22.688187 C.3        1 MOL1         0.1053
      51    H24     17.777864   21.134739   22.585048 H          1 MOL1         0.0783
      52    O13     15.954920   21.178548   23.582898 O.3        1 MOL1        -0.5519
      53    H25     16.366155   21.269177   24.471527 H          1 MOL1         0.3769
      54    C16     16.263295   21.975292   21.283882 C.3        1 MOL1         0.1018
      55    H26     15.248250   22.375399   21.406007 H          1 MOL1         0.0783
      56    C17     17.097761   22.923162   20.370578 C.3        1 MOL1         0.1043
      57    H27     17.989971   22.381101   20.032488 H          1 MOL1         0.0783
      58    O14     17.508463   24.109886   21.098052 O.3        1 MOL1        -0.3740
      59    C18     16.335016   23.383550   19.108858 C.3        1 MOL1         0.0138
      60    H28     16.112612   22.507149   18.485788 H          1 MOL1         0.0794
      61    H29     16.988724   24.043331   18.522711 H          1 MOL1         0.0794
      62    O15     15.124968   24.063486   19.454960 O.3        1 MOL1        -0.5486
      63    H30     15.386701   24.810891   20.037554 H          1 MOL1         0.3769
      64    C19     23.506648   22.605187   21.815525 C.3        1 MOL1         0.2972
      65    H31     24.592120   22.762596   21.846783 H          1 MOL1         0.0751
      66    O16     23.172700   21.330944   21.224395 O.3        1 MOL1        -0.3740
      67    C20     22.910153   22.682725   23.245212 C.3        1 MOL1         0.1003
      68    H32     23.118175   23.690893   23.625996 H          1 MOL1         0.0783
      69    O17     23.542257   21.727355   24.113352 O.3        1 MOL1        -0.5519
      70    H33     22.829343   21.226358   24.591366 H          1 MOL1         0.3769
      71    C21     21.370156   22.508957   23.207474 C.3        1 MOL1         0.1053
      72    H34     21.143955   21.482306   22.890287 H          1 MOL1         0.0783
      73    O18     20.825009   22.751187   24.508553 O.3        1 MOL1        -0.5519
      74    H35     21.053565   21.948790   25.047698 H          1 MOL1         0.3769
      75    C22     20.717269   23.479394   22.189477 C.3        1 MOL1         0.1018
      76    H36     20.724692   24.495189   22.606032 H          1 MOL1         0.0783
      77    C23     21.448919   23.482807   20.820373 C.3        1 MOL1         0.1043
      78    H37     21.240834   22.536814   20.306040 H          1 MOL1         0.0783
      79    O19     22.875043   23.639606   21.030684 O.3        1 MOL1        -0.3740
      80    C24     20.982479   24.637218   19.910141 C.3        1 MOL1         0.0138
      81    H38     21.238164   25.596187   20.380257 H          1 MOL1         0.0794
      82    H39     19.890452   24.596782   19.802090 H          1 MOL1         0.0794
      83    O20     21.602249   24.524666   18.627459 O.3        1 MOL1        -0.5486
      84    H40     22.563320   24.403349   18.799119 H          1 MOL1         0.3769
      85    C25     24.838476   17.669911   20.296909 C.3        1 MOL1         0.2972
      86    H41     25.409252   16.812389   19.918531 H          1 MOL1         0.0751
      87    O21     23.572434   17.252401   20.850823 O.3        1 MOL1        -0.3740
      88    C26     25.660158   18.467880   21.344788 C.3        1 MOL1         0.1003
      89    H42     26.544884   18.857449   20.825159 H          1 MOL1         0.0783
      90    O22     26.099487   17.621748   22.418594 O.3        1 MOL1        -0.5519
      91    H43     25.302780   17.442208   22.977355 H          1 MOL1         0.3769
      92    C27     24.852973   19.685153   21.870627 C.3        1 MOL1         0.1053
      93    H44     24.013725   19.303975   22.468713 H          1 MOL1         0.0783
      94    O23     25.700081   20.504664   22.684633 O.3        1 MOL1        -0.5519
      95    H45     25.096231   20.973475   23.311250 H          1 MOL1         0.3769
      96    C28     24.266427   20.540128   20.709249 C.3        1 MOL1         0.1018
      97    H46     25.055660   21.179379   20.292082 H          1 MOL1         0.0783
      98    C29     23.665317   19.682501   19.561640 C.3        1 MOL1         0.1043
      99    H47     22.701361   19.283803   19.900283 H          1 MOL1         0.0783
     100    O24     24.551756   18.586131   19.220520 O.3        1 MOL1        -0.3740
     101    C30     23.405632   20.500719   18.277212 C.3        1 MOL1         0.0138
     102    H48     22.725566   21.330955   18.511820 H          1 MOL1         0.0794
     103    H49     22.899098   19.856809   17.546015 H          1 MOL1         0.0794
     104    O25     24.629544   21.003356   17.732268 O.3        1 MOL1        -0.5486
     105    H50     25.220906   20.224474   17.630862 H          1 MOL1         0.3769
     106    C31     21.421877   14.183061   22.531921 C.3        1 MOL1         0.2972
     107    H51     21.038247   13.273029   23.010075 H          1 MOL1         0.0751
     108    O26     20.359663   14.977383   21.963891 O.3        1 MOL1        -0.3740
     109    C32     22.194380   15.040782   23.565413 C.3        1 MOL1         0.1003
     110    H52     23.043263   14.443256   23.921703 H          1 MOL1         0.0783
     111    O27     21.341800   15.356680   24.678976 O.3        1 MOL1        -0.5519
     112    H53     21.536425   16.291982   24.953589 H          1 MOL1         0.3769
     113    C33     22.762421   16.319501   22.901107 C.3        1 MOL1         0.1053
     114    H54     21.914240   16.965247   22.650299 H          1 MOL1         0.0783
     115    O28     23.639225   16.995933   23.811683 O.3        1 MOL1        -0.5519
     116    H55     23.052857   17.474974   24.456310 H          1 MOL1         0.3769
     117    C34     23.527757   16.012052   21.585796 C.3        1 MOL1         0.1018
     118    H56     24.530405   15.642841   21.836473 H          1 MOL1         0.0783
     119    C35     22.801953   14.977798   20.679328 C.3        1 MOL1         0.1043
     120    H57     21.944333   15.477579   20.209281 H          1 MOL1         0.0783
     121    O29     22.338725   13.852302   21.467801 O.3        1 MOL1        -0.3740
     122    C36     23.690538   14.424633   19.543249 C.3        1 MOL1         0.0138
     123    H58     23.963059   15.247305   18.869105 H          1 MOL1         0.0794
     124    H59     23.104931   13.703565   18.957330 H          1 MOL1         0.0794
     125    O30     24.868297   13.801097   20.062866 O.3        1 MOL1        -0.5486
     126    H60     24.559342   13.109240   20.689383 H          1 MOL1         0.3769
     127    C1      21.011626   19.147912   25.180422 C.2        1 MOL1         0.6132
     128    O1      21.540776   20.226281   25.374792 O.co2      1 MOL1        -0.6749
     129    O2      21.583529   18.082551   25.320208 O.co2      1 MOL1        -0.6749
     130    C2      19.552671   19.134953   24.731681 C.3        1 MOL1        -0.1955
     131    H1      19.091613   20.093298   24.996749 H          1 MOL1         0.0733
     132    H2      19.041799   18.375542   25.334382 H          1 MOL1         0.0733
     133    C3      19.322694   18.838551   23.257578 C.2        1 MOL1        -0.1395
     134    H3      18.306689   18.532760   23.011446 H          1 MOL1         0.0816
     135    C4      20.248835   18.890975   22.294220 C.2        1 MOL1        -0.1394
     136    H4      21.273310   19.188313   22.514086 H          1 MOL1         0.0816
     137    C5      19.987232   18.507867   20.856551 C.3        1 MOL1        -0.1826
     138    H5      20.821372   17.906006   20.473603 H          1 MOL1         0.0736
     139    H6      19.094733   17.874500   20.797629 H          1 MOL1         0.0736
     140    C6      19.791598   19.753999   19.974678 C.3        1 MOL1        -0.2882
     141    H7      19.593712   19.470967   18.933353 H          1 MOL1         0.0749
     142    H8      18.945119   20.347025   20.338202 H          1 MOL1         0.0749
     143    H9      20.682725   20.389939   19.996652 H          1 MOL1         0.0749
@<TRIPOS>BOND
    1     1     2    1
    2     1     3    1
    3     1     4    1
    4     4     5    1
    5     4     6    1
    6     6     7    1
    7     4     8    1
    8     8     9    1
    9     8    10    1
   10    10    11    1
   11     8    12    1
   12    12    13    1
   13    12    14    1
   14    14    15    1
   15     1    16    1
   16    14    16    1
   17    14    17    1
   18    17    18    1
   19    17    19    1
   20    17    20    1
   21    20    21    1
   22    22    23    1
   23    22    24    1
   24    22    25    1
   25    25    26    1
   26    25    27    1
   27    27    28    1
   28    25    29    1
   29    29    30    1
   30    29    31    1
   31    31    32    1
   32     3    33    1
   33    29    33    1
   34    33    34    1
   35    33    35    1
   36    35    36    1
   37    22    37    1
   38    35    37    1
   39    35    38    1
   40    38    39    1
   41    38    40    1
   42    38    41    1
   43    41    42    1
   44    43    44    1
   45    43    45    1
   46    43    46    1
   47    46    47    1
   48    46    48    1
   49    48    49    1
   50    46    50    1
   51    50    51    1
   52    50    52    1
   53    52    53    1
   54    24    54    1
   55    50    54    1
   56    54    55    1
   57    54    56    1
   58    56    57    1
   59    43    58    1
   60    56    58    1
   61    56    59    1
   62    59    60    1
   63    59    61    1
   64    59    62    1
   65    62    63    1
   66    64    65    1
   67    64    66    1
   68    64    67    1
   69    67    68    1
   70    67    69    1
   71    69    70    1
   72    67    71    1
   73    71    72    1
   74    71    73    1
   75    73    74    1
   76    45    75    1
   77    71    75    1
   78    75    76    1
   79    75    77    1
   80    77    78    1
   81    64    79    1
   82    77    79    1
   83    77    80    1
   84    80    81    1
   85    80    82    1
   86    80    83    1
   87    83    84    1
   88    85    86    1
   89    85    87    1
   90    85    88    1
   91    88    89    1
   92    88    90    1
   93    90    91    1
   94    88    92    1
   95    92    93    1
   96    92    94    1
   97    94    95    1
   98    66    96    1
   99    92    96    1
  100    96    97    1
  101    96    98    1
  102    98    99    1
  103    85   100    1
  104    98   100    1
  105    98   101    1
  106   101   102    1
  107   101   103    1
  108   101   104    1
  109   104   105    1
  110   106   107    1
  111    12   108    1
  112   106   108    1
  113   106   109    1
  114   109   110    1
  115   109   111    1
  116   111   112    1
  117   109   113    1
  118   113   114    1
  119   113   115    1
  120   115   116    1
  121    87   117    1
  122   113   117    1
  123   117   118    1
  124   117   119    1
  125   119   120    1
  126   106   121    1
  127   119   121    1
  128   119   122    1
  129   122   123    1
  130   122   124    1
  131   122   125    1
  132   125   126    1
  133   127   128    1
  134   127   129    2
  135   127   130    1
  136   130   131    1
  137   130   132    1
  138   130   133    1
  139   133   134    1
  140   133   135    2
  141   135   136    1
  142   135   137    1
  143   137   138    1
  144   137   139    1
  145   137   140    1
  146   140   141    1
  147   140   142    1
  148   140   143    1
@<TRIPOS>SUBSTRUCTURE
       1 MOL1            1 RESIDUE      1      MOL     
       2 MOL1          143 RESIDUE      1      MOL     
@<SCITEGIC>MOL_PROPERTY
VM2 Rank
SciTegic.value.IntegerValue
3

@<SCITEGIC>MOL_PROPERTY
Conf_Id
SciTegic.value.IntegerValue
21075

@<SCITEGIC>MOL_PROPERTY
Probability
SciTegic.value.DoubleValue
0.93

@<SCITEGIC>MOL_PROPERTY
Sum Probability
SciTegic.value.DoubleValue
3.02

@<SCITEGIC>MOL_PROPERTY
Delta G
SciTegic.value.DoubleValue
0.083

@<SCITEGIC>MOL_PROPERTY
G
SciTegic.value.DoubleValue
490.377

@<SCITEGIC>MOL_PROPERTY
E
SciTegic.value.DoubleValue
305.053

@<SCITEGIC>MOL_PROPERTY
-TS
SciTegic.value.DoubleValue
185.325

@<SCITEGIC>MOL_PROPERTY
U+W
SciTegic.value.DoubleValue
178.964

@<SCITEGIC>MOL_PROPERTY
U
SciTegic.value.DoubleValue
239.123

@<SCITEGIC>MOL_PROPERTY
W
SciTegic.value.DoubleValue
-60.159

@<SCITEGIC>MOL_PROPERTY
W(PB)
SciTegic.value.DoubleValue
-66.109

@<SCITEGIC>MOL_PROPERTY
W(SA)
SciTegic.value.DoubleValue
5.950

@<SCITEGIC>MOL_PROPERTY
Valence
SciTegic.value.DoubleValue
160.171

@<SCITEGIC>MOL_PROPERTY
Coulomb
SciTegic.value.DoubleValue
100.305

@<SCITEGIC>MOL_PROPERTY
VdW
SciTegic.value.DoubleValue
-21.353

@<SCITEGIC>MOL_PROPERTY
VdW6
SciTegic.value.DoubleValue
-182.744

@<SCITEGIC>MOL_PROPERTY
VdW12
SciTegic.value.DoubleValue
161.391

@<SCITEGIC>MOL_PROPERTY
Bond
SciTegic.value.DoubleValue
5.103

@<SCITEGIC>MOL_PROPERTY
Angle
SciTegic.value.DoubleValue
12.765

@<SCITEGIC>MOL_PROPERTY
Pdih
SciTegic.value.DoubleValue
142.298

@<SCITEGIC>MOL_PROPERTY
Idih
SciTegic.value.DoubleValue
0.005

@<SCITEGIC>MOL_PROPERTY
Tether
SciTegic.value.DoubleValue
0.000

@<TRIPOS>MOLECULE
CD_guest-s20_vm2_single.mol2 : vm2 host+ligand conformer 4
         143         148           2
SMALL
USER_CHARGES
 
@<TRIPOS>ATOM
       1    C1      16.283977   15.057859   21.427471 C.3        1 MOL1         0.2972
       2    H1      15.205334   14.889775   21.316056 H          1 MOL1         0.0751
       3    O1      16.618718   16.457676   21.327443 O.3        1 MOL1        -0.3740
       4    C2      16.765318   14.508550   22.792289 C.3        1 MOL1         0.1003
       5    H2      16.561973   13.429708   22.795908 H          1 MOL1         0.0783
       6    O2      16.063565   15.117626   23.884120 O.3        1 MOL1        -0.5519
       7    H3      16.556547   14.828177   24.684666 H          1 MOL1         0.3769
       8    C3      18.288566   14.699309   22.970598 C.3        1 MOL1         0.1053
       9    H4      18.488353   15.774394   23.074167 H          1 MOL1         0.0783
      10    O3      18.696047   14.007879   24.156418 O.3        1 MOL1        -0.5519
      11    H5      19.595834   14.352778   24.380746 H          1 MOL1         0.3769
      12    C4      19.082113   14.174436   21.742570 C.3        1 MOL1         0.1018
      13    H6      19.140467   13.078543   21.780574 H          1 MOL1         0.0783
      14    C5      18.447717   14.590559   20.387450 C.3        1 MOL1         0.1043
      15    H7      18.652373   15.654174   20.216988 H          1 MOL1         0.0783
      16    O4      17.016985   14.349668   20.406425 O.3        1 MOL1        -0.3740
      17    C6      19.041815   13.790539   19.209765 C.3        1 MOL1         0.0138
      18    H8      18.814080   12.724639   19.344108 H          1 MOL1         0.0794
      19    H9      20.134469   13.901693   19.212392 H          1 MOL1         0.0794
      20    O5      18.505517   14.265132   17.973491 O.3        1 MOL1        -0.5486
      21    H10     17.528225   14.244140   18.075297 H          1 MOL1         0.3769
      22    C7      14.828581   20.178322   20.649633 C.3        1 MOL1         0.2972
      23    H11     14.149972   20.970425   20.307909 H          1 MOL1         0.0751
      24    O6      16.021419   20.722617   21.244456 O.3        1 MOL1        -0.3740
      25    C8      14.125690   19.284210   21.703489 C.3        1 MOL1         0.1003
      26    H12     13.216913   18.883051   21.236334 H          1 MOL1         0.0783
      27    O7      13.764595   20.041874   22.867914 O.3        1 MOL1        -0.5519
      28    H13     13.454334   19.370352   23.515815 H          1 MOL1         0.3769
      29    C9      15.016135   18.086798   22.116740 C.3        1 MOL1         0.1053
      30    H14     15.867684   18.478551   22.690028 H          1 MOL1         0.0783
      31    O8      14.248185   17.192770   22.930879 O.3        1 MOL1        -0.5519
      32    H15     14.880477   16.517085   23.282339 H          1 MOL1         0.3769
      33    C10     15.570859   17.337945   20.876369 C.3        1 MOL1         0.1018
      34    H16     14.758202   16.785057   20.386575 H          1 MOL1         0.0783
      35    C11     16.192306   18.313438   19.844062 C.3        1 MOL1         0.1043
      36    H17     17.104912   18.754937   20.265598 H          1 MOL1         0.0783
      37    O9      15.219697   19.342798   19.539465 O.3        1 MOL1        -0.3740
      38    C12     16.551677   17.610341   18.518160 C.3        1 MOL1         0.0138
      39    H18     15.646759   17.159170   18.090116 H          1 MOL1         0.0794
      40    H19     17.267066   16.802019   18.716697 H          1 MOL1         0.0794
      41    O10     17.120163   18.550786   17.605201 O.3        1 MOL1        -0.5486
      42    H20     16.510902   19.320450   17.599480 H          1 MOL1         0.3769
      43    C13     18.311389   24.112864   21.377895 C.3        1 MOL1         0.2972
      44    H21     18.764120   25.112804   21.367258 H          1 MOL1         0.0751
      45    O11     19.318293   23.074881   21.349453 O.3        1 MOL1        -0.3740
      46    C14     17.396483   23.927408   22.616475 C.3        1 MOL1         0.1003
      47    H22     16.561676   24.631946   22.510493 H          1 MOL1         0.0783
      48    O12     18.098944   24.234604   23.829211 O.3        1 MOL1        -0.5519
      49    H23     18.795805   23.540837   23.939875 H          1 MOL1         0.3769
      50    C15     16.803532   22.493148   22.623596 C.3        1 MOL1         0.1053
      51    H24     17.624893   21.779853   22.782850 H          1 MOL1         0.0783
      52    O13     15.821700   22.345286   23.657803 O.3        1 MOL1        -0.5519
      53    H25     15.351655   21.497413   23.473571 H          1 MOL1         0.3769
      54    C16     16.121429   22.159165   21.271779 C.3        1 MOL1         0.1018
      55    H26     15.130304   22.632182   21.270194 H          1 MOL1         0.0783
      56    C17     16.925452   22.621835   20.018967 C.3        1 MOL1         0.1043
      57    H27     17.748938   21.919460   19.856210 H          1 MOL1         0.0783
      58    O14     17.466397   23.950098   20.221125 O.3        1 MOL1        -0.3740
      59    C18     16.088483   22.662777   18.720477 C.3        1 MOL1         0.0138
      60    H28     15.774103   21.645147   18.458978 H          1 MOL1         0.0794
      61    H29     16.726682   23.023275   17.902622 H          1 MOL1         0.0794
      62    O15     14.945607   23.510819   18.866835 O.3        1 MOL1        -0.5486
      63    H30     15.291128   24.397547   19.113416 H          1 MOL1         0.3769
      64    C19     23.406469   22.477394   21.905777 C.3        1 MOL1         0.2972
      65    H31     24.469571   22.593376   22.149263 H          1 MOL1         0.0751
      66    O16     23.168433   21.285545   21.123952 O.3        1 MOL1        -0.3740
      67    C20     22.556166   22.412245   23.202923 C.3        1 MOL1         0.1003
      68    H32     22.697134   23.364268   23.730691 H          1 MOL1         0.0783
      69    O17     23.022184   21.348411   24.049119 O.3        1 MOL1        -0.5519
      70    H33     22.251520   20.989488   24.561741 H          1 MOL1         0.3769
      71    C21     21.045184   22.290558   22.864144 C.3        1 MOL1         0.1053
      72    H34     20.866771   21.322925   22.377994 H          1 MOL1         0.0783
      73    O18     20.268226   22.393553   24.063526 O.3        1 MOL1        -0.5519
      74    H35     20.399913   21.547282   24.565639 H          1 MOL1         0.3769
      75    C22     20.614168   23.416408   21.885438 C.3        1 MOL1         0.1018
      76    H36     20.583278   24.362581   22.442069 H          1 MOL1         0.0783
      77    C23     21.582901   23.554716   20.677945 C.3        1 MOL1         0.1043
      78    H37     21.454927   22.679745   20.027828 H          1 MOL1         0.0783
      79    O19     22.952387   23.617448   21.145182 O.3        1 MOL1        -0.3740
      80    C24     21.320371   24.815416   19.823831 C.3        1 MOL1         0.0138
      81    H38     20.322638   24.739715   19.371243 H          1 MOL1         0.0794
      82    H39     22.049768   24.843693   19.003284 H          1 MOL1         0.0794
      83    O20     21.414701   26.004903   20.613475 O.3        1 MOL1        -0.5486
      84    H40     22.311742   25.996498   21.015740 H          1 MOL1         0.3769
      85    C25     24.950204   17.614342   20.393643 C.3        1 MOL1         0.2972
      86    H41     25.568344   16.766089   20.072867 H          1 MOL1         0.0751
      87    O21     23.642161   17.174658   20.823703 O.3        1 MOL1        -0.3740
      88    C26     25.653611   18.424226   21.514703 C.3        1 MOL1         0.1003
      89    H42     26.568751   18.844454   21.078281 H          1 MOL1         0.0783
      90    O22     26.024621   17.580596   22.615413 O.3        1 MOL1        -0.5519
      91    H43     25.190439   17.385750   23.110500 H          1 MOL1         0.3769
      92    C27     24.762674   19.612761   21.966651 C.3        1 MOL1         0.1053
      93    H44     23.860828   19.202424   22.441354 H          1 MOL1         0.0783
      94    O23     25.481682   20.418847   22.906901 O.3        1 MOL1        -0.5519
      95    H45     24.790041   20.795359   23.504659 H          1 MOL1         0.3769
      96    C28     24.313880   20.482683   20.753379 C.3        1 MOL1         0.1018
      97    H46     25.149223   21.118694   20.432457 H          1 MOL1         0.0783
      98    C29     23.844195   19.623544   19.545059 C.3        1 MOL1         0.1043
      99    H47     22.852540   19.219129   19.779501 H          1 MOL1         0.0783
     100    O24     24.763063   18.529492   19.294552 O.3        1 MOL1        -0.3740
     101    C30     23.716735   20.440662   18.240561 C.3        1 MOL1         0.0138
     102    H48     23.008293   21.264312   18.401518 H          1 MOL1         0.0794
     103    H49     23.296730   19.793084   17.459428 H          1 MOL1         0.0794
     104    O25     24.987515   20.953984   17.829415 O.3        1 MOL1        -0.5486
     105    H50     25.592441   20.179851   17.789834 H          1 MOL1         0.3769
     106    C31     21.461788   14.019321   22.369486 C.3        1 MOL1         0.2972
     107    H51     21.095911   13.086262   22.816309 H          1 MOL1         0.0751
     108    O26     20.390455   14.779189   21.770207 O.3        1 MOL1        -0.3740
     109    C32     22.171339   14.886087   23.441816 C.3        1 MOL1         0.1003
     110    H52     23.035779   14.315373   23.804718 H          1 MOL1         0.0783
     111    O27     21.288924   15.142733   24.546067 O.3        1 MOL1        -0.5519
     112    H53     21.399279   16.095701   24.805795 H          1 MOL1         0.3769
     113    C33     22.705334   16.198626   22.816831 C.3        1 MOL1         0.1053
     114    H54     21.841347   16.800887   22.518705 H          1 MOL1         0.0783
     115    O28     23.490398   16.911344   23.781133 O.3        1 MOL1        -0.5519
     116    H55     22.843157   17.365617   24.384077 H          1 MOL1         0.3769
     117    C34     23.556087   15.927310   21.546589 C.3        1 MOL1         0.1018
     118    H56     24.544140   15.561529   21.854408 H          1 MOL1         0.0783
     119    C35     22.893757   14.895845   20.589484 C.3        1 MOL1         0.1043
     120    H57     22.042225   15.383784   20.096325 H          1 MOL1         0.0783
     121    O29     22.429388   13.740533   21.334671 O.3        1 MOL1        -0.3740
     122    C36     23.843942   14.391867   19.480593 C.3        1 MOL1         0.0138
     123    H58     24.124803   15.237456   18.838822 H          1 MOL1         0.0794
     124    H59     23.302591   13.671397   18.852927 H          1 MOL1         0.0794
     125    O30     25.013704   13.784736   20.036808 O.3        1 MOL1        -0.5486
     126    H60     24.695577   13.069041   20.631113 H          1 MOL1         0.3769
     127    C1      20.576264   18.854554   24.987204 C.2        1 MOL1         0.6132
     128    O1      20.910315   19.990450   25.266012 O.co2      1 MOL1        -0.6749
     129    O2      21.285849   17.880569   25.157773 O.co2      1 MOL1        -0.6749
     130    C2      19.195735   18.647429   24.373381 C.3        1 MOL1        -0.1955
     131    H1      18.554152   19.485734   24.668822 H          1 MOL1         0.0733
     132    H2      18.763411   17.755338   24.840755 H          1 MOL1         0.0733
     133    C3      19.166919   18.486849   22.861537 C.2        1 MOL1        -0.1395
     134    H3      18.208919   18.161693   22.465712 H          1 MOL1         0.0816
     135    C4      20.192709   18.678400   22.025550 C.2        1 MOL1        -0.1394
     136    H4      21.166189   19.001038   22.392657 H          1 MOL1         0.0816
     137    C5      20.117970   18.433420   20.536246 C.3        1 MOL1        -0.1826
     138    H5      21.009383   17.888874   20.200828 H          1 MOL1         0.0736
     139    H6      19.258241   17.796193   20.299574 H          1 MOL1         0.0736
     140    C6      19.986360   19.756956   19.764621 C.3        1 MOL1        -0.2882
     141    H7      19.912958   19.575550   18.684751 H          1 MOL1         0.0749
     142    H8      19.084006   20.285155   20.086705 H          1 MOL1         0.0749
     143    H9      20.845593   20.410039   19.952018 H          1 MOL1         0.0749
@<TRIPOS>BOND
    1     1     2    1
    2     1     3    1
    3     1     4    1
    4     4     5    1
    5     4     6    1
    6     6     7    1
    7     4     8    1
    8     8     9    1
    9     8    10    1
   10    10    11    1
   11     8    12    1
   12    12    13    1
   13    12    14    1
   14    14    15    1
   15     1    16    1
   16    14    16    1
   17    14    17    1
   18    17    18    1
   19    17    19    1
   20    17    20    1
   21    20    21    1
   22    22    23    1
   23    22    24    1
   24    22    25    1
   25    25    26    1
   26    25    27    1
   27    27    28    1
   28    25    29    1
   29    29    30    1
   30    29    31    1
   31    31    32    1
   32     3    33    1
   33    29    33    1
   34    33    34    1
   35    33    35    1
   36    35    36    1
   37    22    37    1
   38    35    37    1
   39    35    38    1
   40    38    39    1
   41    38    40    1
   42    38    41    1
   43    41    42    1
   44    43    44    1
   45    43    45    1
   46    43    46    1
   47    46    47    1
   48    46    48    1
   49    48    49    1
   50    46    50    1
   51    50    51    1
   52    50    52    1
   53    52    53    1
   54    24    54    1
   55    50    54    1
   56    54    55    1
   57    54    56    1
   58    56    57    1
   59    43    58    1
   60    56    58    1
   61    56    59    1
   62    59    60    1
   63    59    61    1
   64    59    62    1
   65    62    63    1
   66    64    65    1
   67    64    66    1
   68    64    67    1
   69    67    68    1
   70    67    69    1
   71    69    70    1
   72    67    71    1
   73    71    72    1
   74    71    73    1
   75    73    74    1
   76    45    75    1
   77    71    75    1
   78    75    76    1
   79    75    77    1
   80    77    78    1
   81    64    79    1
   82    77    79    1
   83    77    80    1
   84    80    81    1
   85    80    82    1
   86    80    83    1
   87    83    84    1
   88    85    86    1
   89    85    87    1
   90    85    88    1
   91    88    89    1
   92    88    90    1
   93    90    91    1
   94    88    92    1
   95    92    93    1
   96    92    94    1
   97    94    95    1
   98    66    96    1
   99    92    96    1
  100    96    97    1
  101    96    98    1
  102    98    99    1
  103    85   100    1
  104    98   100    1
  105    98   101    1
  106   101   102    1
  107   101   103    1
  108   101   104    1
  109   104   105    1
  110   106   107    1
  111    12   108    1
  112   106   108    1
  113   106   109    1
  114   109   110    1
  115   109   111    1
  116   111   112    1
  117   109   113    1
  118   113   114    1
  119   113   115    1
  120   115   116    1
  121    87   117    1
  122   113   117    1
  123   117   118    1
  124   117   119    1
  125   119   120    1
  126   106   121    1
  127   119   121    1
  128   119   122    1
  129   122   123    1
  130   122   124    1
  131   122   125    1
  132   125   126    1
  133   127   128    1
  134   127   129    2
  135   127   130    1
  136   130   131    1
  137   130   132    1
  138   130   133    1
  139   133   134    1
  140   133   135    2
  141   135   136    1
  142   135   137    1
  143   137   138    1
  144   137   139    1
  145   137   140    1
  146   140   141    1
  147   140   142    1
  148   140   143    1
@<TRIPOS>SUBSTRUCTURE
       1 MOL1            1 RESIDUE      1      MOL     
       2 MOL1          143 RESIDUE      1      MOL     
@<SCITEGIC>MOL_PROPERTY
VM2 Rank
SciTegic.value.IntegerValue
4

@<SCITEGIC>MOL_PROPERTY
Conf_Id
SciTegic.value.IntegerValue
4054

@<SCITEGIC>MOL_PROPERTY
Probability
SciTegic.value.DoubleValue
0.91

@<SCITEGIC>MOL_PROPERTY
Sum Probability
SciTegic.value.DoubleValue
3.92

@<SCITEGIC>MOL_PROPERTY
Delta G
SciTegic.value.DoubleValue
0.099

@<SCITEGIC>MOL_PROPERTY
G
SciTegic.value.DoubleValue
490.393

@<SCITEGIC>MOL_PROPERTY
E
SciTegic.value.DoubleValue
305.390

@<SCITEGIC>MOL_PROPERTY
-TS
SciTegic.value.DoubleValue
185.003

@<SCITEGIC>MOL_PROPERTY
U+W
SciTegic.value.DoubleValue
179.301

@<SCITEGIC>MOL_PROPERTY
U
SciTegic.value.DoubleValue
242.951

@<SCITEGIC>MOL_PROPERTY
W
SciTegic.value.DoubleValue
-63.650

@<SCITEGIC>MOL_PROPERTY
W(PB)
SciTegic.value.DoubleValue
-69.636

@<SCITEGIC>MOL_PROPERTY
W(SA)
SciTegic.value.DoubleValue
5.986

@<SCITEGIC>MOL_PROPERTY
Valence
SciTegic.value.DoubleValue
158.165

@<SCITEGIC>MOL_PROPERTY
Coulomb
SciTegic.value.DoubleValue
105.300

@<SCITEGIC>MOL_PROPERTY
VdW
SciTegic.value.DoubleValue
-20.514

@<SCITEGIC>MOL_PROPERTY
VdW6
SciTegic.value.DoubleValue
-181.687

@<SCITEGIC>MOL_PROPERTY
VdW12
SciTegic.value.DoubleValue
161.173

@<SCITEGIC>MOL_PROPERTY
Bond
SciTegic.value.DoubleValue
5.191

@<SCITEGIC>MOL_PROPERTY
Angle
SciTegic.value.DoubleValue
12.822

@<SCITEGIC>MOL_PROPERTY
Pdih
SciTegic.value.DoubleValue
140.149

@<SCITEGIC>MOL_PROPERTY
Idih
SciTegic.value.DoubleValue
0.004

@<SCITEGIC>MOL_PROPERTY
Tether
SciTegic.value.DoubleValue
0.000

@<TRIPOS>MOLECULE
CD_guest-s20_vm2_single.mol2 : vm2 host+ligand conformer 5
         143         148           2
SMALL
USER_CHARGES
 
@<TRIPOS>ATOM
       1    C1      16.257281   15.129411   21.420167 C.3        1 MOL1         0.2972
       2    H1      15.176600   14.966993   21.320568 H          1 MOL1         0.0751
       3    O1      16.599842   16.524723   21.290878 O.3        1 MOL1        -0.3740
       4    C2      16.741763   14.610184   22.795238 C.3        1 MOL1         0.1003
       5    H2      16.528922   13.533713   22.828590 H          1 MOL1         0.0783
       6    O2      16.049132   15.257030   23.871820 O.3        1 MOL1        -0.5519
       7    H3      16.545098   14.990256   24.678261 H          1 MOL1         0.3769
       8    C3      18.268009   14.792970   22.960202 C.3        1 MOL1         0.1053
       9    H4      18.476221   15.868837   23.032685 H          1 MOL1         0.0783
      10    O3      18.679560   14.133379   24.162718 O.3        1 MOL1        -0.5519
      11    H5      19.602192   14.440125   24.345585 H          1 MOL1         0.3769
      12    C4      19.051917   14.229591   21.743278 C.3        1 MOL1         0.1018
      13    H6      19.111384   13.135662   21.816302 H          1 MOL1         0.0783
      14    C5      18.408908   14.609390   20.380999 C.3        1 MOL1         0.1043
      15    H7      18.618063   15.668177   20.188480 H          1 MOL1         0.0783
      16    O4      16.975493   14.393506   20.409109 O.3        1 MOL1        -0.3740
      17    C6      18.983746   13.796164   19.200411 C.3        1 MOL1         0.0138
      18    H8      20.068878   13.957075   19.148296 H          1 MOL1         0.0794
      19    H9      18.547797   14.174753   18.266233 H          1 MOL1         0.0794
      20    O5      18.698546   12.402353   19.350772 O.3        1 MOL1        -0.5486
      21    H10     17.725725   12.337440   19.478876 H          1 MOL1         0.3769
      22    C7      14.898750   20.231038   20.450031 C.3        1 MOL1         0.2972
      23    H11     14.263615   21.043154   20.074805 H          1 MOL1         0.0751
      24    O6      16.114064   20.735616   21.036142 O.3        1 MOL1        -0.3740
      25    C8      14.143554   19.397725   21.518540 C.3        1 MOL1         0.1003
      26    H12     13.239775   18.997303   21.041845 H          1 MOL1         0.0783
      27    O7      13.757170   20.240928   22.616628 O.3        1 MOL1        -0.5519
      28    H13     14.577725   20.675598   22.959247 H          1 MOL1         0.3769
      29    C9      14.999670   18.191276   21.994258 C.3        1 MOL1         0.1053
      30    H14     15.848683   18.584350   22.569984 H          1 MOL1         0.0783
      31    O8      14.217541   17.315798   22.816190 O.3        1 MOL1        -0.5519
      32    H15     14.846929   16.662468   23.210376 H          1 MOL1         0.3769
      33    C10     15.558578   17.386135   20.789899 C.3        1 MOL1         0.1018
      34    H16     14.744402   16.813068   20.326596 H          1 MOL1         0.0783
      35    C11     16.193685   18.298692   19.709596 C.3        1 MOL1         0.1043
      36    H17     17.118751   18.727881   20.113836 H          1 MOL1         0.0783
      37    O9      15.264980   19.354987   19.366194 O.3        1 MOL1        -0.3740
      38    C12     16.545614   17.546532   18.407059 C.3        1 MOL1         0.0138
      39    H18     17.256569   16.742710   18.635647 H          1 MOL1         0.0794
      40    H19     17.047132   18.244309   17.723237 H          1 MOL1         0.0794
      41    O10     15.372404   17.005928   17.792165 O.3        1 MOL1        -0.5486
      42    H20     14.746181   17.757700   17.696805 H          1 MOL1         0.3769
      43    C13     18.301725   24.140095   21.716061 C.3        1 MOL1         0.2972
      44    H21     18.720156   25.145487   21.853925 H          1 MOL1         0.0751
      45    O11     19.336310   23.139175   21.585927 O.3        1 MOL1        -0.3740
      46    C14     17.356417   23.757068   22.882436 C.3        1 MOL1         0.1003
      47    H22     16.493935   24.434621   22.834722 H          1 MOL1         0.0783
      48    O12     17.983499   23.911699   24.162499 O.3        1 MOL1        -0.5519
      49    H23     18.812609   23.370079   24.149427 H          1 MOL1         0.3769
      50    C15     16.833202   22.314725   22.680668 C.3        1 MOL1         0.1053
      51    H24     17.684431   21.621973   22.749379 H          1 MOL1         0.0783
      52    O13     15.876519   22.009257   23.700699 O.3        1 MOL1        -0.5519
      53    H25     16.286316   22.326420   24.536205 H          1 MOL1         0.3769
      54    C16     16.178053   22.152755   21.283328 C.3        1 MOL1         0.1018
      55    H26     15.178268   22.606117   21.318243 H          1 MOL1         0.0783
      56    C17     17.005244   22.796519   20.129081 C.3        1 MOL1         0.1043
      57    H27     17.854923   22.145624   19.894955 H          1 MOL1         0.0783
      58    O14     17.488601   24.105296   20.525066 O.3        1 MOL1        -0.3740
      59    C18     16.180034   22.984728   18.838486 C.3        1 MOL1         0.0138
      60    H28     15.322633   23.638212   19.048035 H          1 MOL1         0.0794
      61    H29     15.791661   22.012847   18.507826 H          1 MOL1         0.0794
      62    O15     16.999991   23.548688   17.813267 O.3        1 MOL1        -0.5486
      63    H30     17.453817   24.317960   18.225595 H          1 MOL1         0.3769
      64    C19     23.438112   22.547241   21.940946 C.3        1 MOL1         0.2972
      65    H31     24.512839   22.655098   22.131762 H          1 MOL1         0.0751
      66    O16     23.154121   21.367545   21.156096 O.3        1 MOL1        -0.3740
      67    C20     22.654143   22.469082   23.278145 C.3        1 MOL1         0.1003
      68    H32     22.823145   23.415376   23.807986 H          1 MOL1         0.0783
      69    O17     23.155810   21.395577   24.091356 O.3        1 MOL1        -0.5519
      70    H33     22.394442   20.989690   24.582778 H          1 MOL1         0.3769
      71    C21     21.129015   22.353332   23.012712 C.3        1 MOL1         0.1053
      72    H34     20.925425   21.390276   22.526272 H          1 MOL1         0.0783
      73    O18     20.414327   22.444046   24.250139 O.3        1 MOL1        -0.5519
      74    H35     20.560321   21.584558   24.725355 H          1 MOL1         0.3769
      75    C22     20.649150   23.488770   22.069663 C.3        1 MOL1         0.1018
      76    H36     20.635233   24.428085   22.638285 H          1 MOL1         0.0783
      77    C23     21.559381   23.647285   20.820333 C.3        1 MOL1         0.1043
      78    H37     21.397813   22.784099   20.161660 H          1 MOL1         0.0783
      79    O19     22.950740   23.699706   21.220366 O.3        1 MOL1        -0.3740
      80    C24     21.254529   24.923685   20.004738 C.3        1 MOL1         0.0138
      81    H38     20.231274   24.860436   19.610991 H          1 MOL1         0.0794
      82    H39     21.934691   24.963094   19.143401 H          1 MOL1         0.0794
      83    O20     21.401633   26.098366   20.808448 O.3        1 MOL1        -0.5486
      84    H40     22.319541   26.076476   21.159973 H          1 MOL1         0.3769
      85    C25     24.870813   17.699553   20.278202 C.3        1 MOL1         0.2972
      86    H41     25.468299   16.853684   19.914811 H          1 MOL1         0.0751
      87    O21     23.578150   17.260720   20.752243 O.3        1 MOL1        -0.3740
      88    C26     25.625230   18.477953   21.388328 C.3        1 MOL1         0.1003
      89    H42     26.529853   18.894632   20.927283 H          1 MOL1         0.0783
      90    O22     26.022556   17.607556   22.458804 O.3        1 MOL1        -0.5519
      91    H43     25.202108   17.406084   22.973944 H          1 MOL1         0.3769
      92    C27     24.768680   19.668395   21.897565 C.3        1 MOL1         0.1053
      93    H44     23.884415   19.259289   22.405509 H          1 MOL1         0.0783
      94    O23     25.538951   20.450822   22.817114 O.3        1 MOL1        -0.5519
      95    H45     24.880289   20.827987   23.450556 H          1 MOL1         0.3769
      96    C28     24.276580   20.564909   20.721080 C.3        1 MOL1         0.1018
      97    H46     25.102704   21.201244   20.377650 H          1 MOL1         0.0783
      98    C29     23.749261   19.734991   19.516912 C.3        1 MOL1         0.1043
      99    H47     22.764415   19.335502   19.785041 H          1 MOL1         0.0783
     100    O24     24.646939   18.638883   19.206838 O.3        1 MOL1        -0.3740
     101    C30     23.575366   20.579497   18.235410 C.3        1 MOL1         0.0138
     102    H48     22.882318   21.406011   18.442235 H          1 MOL1         0.0794
     103    H49     23.116889   19.951639   17.459844 H          1 MOL1         0.0794
     104    O25     24.832777   21.089746   17.781633 O.3        1 MOL1        -0.5486
     105    H50     25.428087   20.311283   17.701653 H          1 MOL1         0.3769
     106    C31     21.449756   14.059837   22.280181 C.3        1 MOL1         0.2972
     107    H51     21.100067   13.113535   22.711785 H          1 MOL1         0.0751
     108    O26     20.358039   14.839769   21.747756 O.3        1 MOL1        -0.3740
     109    C32     22.196817   14.895048   23.351431 C.3        1 MOL1         0.1003
     110    H52     23.074382   14.315684   23.665824 H          1 MOL1         0.0783
     111    O27     21.353110   15.115421   24.493083 O.3        1 MOL1        -0.5519
     112    H53     21.447231   16.069229   24.756839 H          1 MOL1         0.3769
     113    C33     22.705535   16.227204   22.745517 C.3        1 MOL1         0.1053
     114    H54     21.830146   16.835078   22.494073 H          1 MOL1         0.0783
     115    O28     23.521353   16.917546   23.700558 O.3        1 MOL1        -0.5519
     116    H55     22.891064   17.356011   24.332371 H          1 MOL1         0.3769
     117    C34     23.512725   15.992750   21.440259 C.3        1 MOL1         0.1018
     118    H56     24.509388   15.616613   21.704740 H          1 MOL1         0.0783
     119    C35     22.816787   14.990079   20.476799 C.3        1 MOL1         0.1043
     120    H57     21.947694   15.491101   20.030020 H          1 MOL1         0.0783
     121    O29     22.380309   13.813466   21.203950 O.3        1 MOL1        -0.3740
     122    C36     23.725743   14.519257   19.319771 C.3        1 MOL1         0.0138
     123    H58     23.979291   15.382382   18.690125 H          1 MOL1         0.0794
     124    H59     23.163123   13.813008   18.694607 H          1 MOL1         0.0794
     125    O30     24.917759   13.902600   19.814812 O.3        1 MOL1        -0.5486
     126    H60     24.624603   13.168361   20.399264 H          1 MOL1         0.3769
     127    C1      20.660870   18.853145   24.974868 C.2        1 MOL1         0.6132
     128    O1      21.059174   19.965636   25.262924 O.co2      1 MOL1        -0.6749
     129    O2      21.323126   17.842666   25.120082 O.co2      1 MOL1        -0.6749
     130    C2      19.256430   18.724478   24.392729 C.3        1 MOL1        -0.1955
     131    H1      18.667452   19.595216   24.703296 H          1 MOL1         0.0733
     132    H2      18.788435   17.856101   24.870333 H          1 MOL1         0.0733
     133    C3      19.182565   18.565111   22.881962 C.2        1 MOL1        -0.1395
     134    H3      18.210153   18.249276   22.511977 H          1 MOL1         0.0816
     135    C4      20.188489   18.744069   22.019415 C.2        1 MOL1        -0.1394
     136    H4      21.174774   19.055595   22.361190 H          1 MOL1         0.0816
     137    C5      20.073167   18.495543   20.533489 C.3        1 MOL1        -0.1826
     138    H5      20.970968   17.980219   20.170692 H          1 MOL1         0.0736
     139    H6      19.229971   17.826503   20.328357 H          1 MOL1         0.0736
     140    C6      19.873726   19.814648   19.767249 C.3        1 MOL1        -0.2882
     141    H7      19.802537   19.636136   18.687083 H          1 MOL1         0.0749
     142    H8      18.950814   20.302181   20.098325 H          1 MOL1         0.0749
     143    H9      20.704880   20.505451   19.951879 H          1 MOL1         0.0749
@<TRIPOS>BOND
    1     1     2    1
    2     1     3    1
    3     1     4    1
    4     4     5    1
    5     4     6    1
    6     6     7    1
    7     4     8    1
    8     8     9    1
    9     8    10    1
   10    10    11    1
   11     8    12    1
   12    12    13    1
   13    12    14    1
   14    14    15    1
   15     1    16    1
   16    14    16    1
   17    14    17    1
   18    17    18    1
   19    17    19    1
   20    17    20    1
   21    20    21    1
   22    22    23    1
   23    22    24    1
   24    22    25    1
   25    25    26    1
   26    25    27    1
   27    27    28    1
   28    25    29    1
   29    29    30    1
   30    29    31    1
   31    31    32    1
   32     3    33    1
   33    29    33    1
   34    33    34    1
   35    33    35    1
   36    35    36    1
   37    22    37    1
   38    35    37    1
   39    35    38    1
   40    38    39    1
   41    38    40    1
   42    38    41    1
   43    41    42    1
   44    43    44    1
   45    43    45    1
   46    43    46    1
   47    46    47    1
   48    46    48    1
   49    48    49    1
   50    46    50    1
   51    50    51    1
   52    50    52    1
   53    52    53    1
   54    24    54    1
   55    50    54    1
   56    54    55    1
   57    54    56    1
   58    56    57    1
   59    43    58    1
   60    56    58    1
   61    56    59    1
   62    59    60    1
   63    59    61    1
   64    59    62    1
   65    62    63    1
   66    64    65    1
   67    64    66    1
   68    64    67    1
   69    67    68    1
   70    67    69    1
   71    69    70    1
   72    67    71    1
   73    71    72    1
   74    71    73    1
   75    73    74    1
   76    45    75    1
   77    71    75    1
   78    75    76    1
   79    75    77    1
   80    77    78    1
   81    64    79    1
   82    77    79    1
   83    77    80    1
   84    80    81    1
   85    80    82    1
   86    80    83    1
   87    83    84    1
   88    85    86    1
   89    85    87    1
   90    85    88    1
   91    88    89    1
   92    88    90    1
   93    90    91    1
   94    88    92    1
   95    92    93    1
   96    92    94    1
   97    94    95    1
   98    66    96    1
   99    92    96    1
  100    96    97    1
  101    96    98    1
  102    98    99    1
  103    85   100    1
  104    98   100    1
  105    98   101    1
  106   101   102    1
  107   101   103    1
  108   101   104    1
  109   104   105    1
  110   106   107    1
  111    12   108    1
  112   106   108    1
  113   106   109    1
  114   109   110    1
  115   109   111    1
  116   111   112    1
  117   109   113    1
  118   113   114    1
  119   113   115    1
  120   115   116    1
  121    87   117    1
  122   113   117    1
  123   117   118    1
  124   117   119    1
  125   119   120    1
  126   106   121    1
  127   119   121    1
  128   119   122    1
  129   122   123    1
  130   122   124    1
  131   122   125    1
  132   125   126    1
  133   127   128    1
  134   127   129    2
  135   127   130    1
  136   130   131    1
  137   130   132    1
  138   130   133    1
  139   133   134    1
  140   133   135    2
  141   135   136    1
  142   135   137    1
  143   137   138    1
  144   137   139    1
  145   137   140    1
  146   140   141    1
  147   140   142    1
  148   140   143    1
@<TRIPOS>SUBSTRUCTURE
       1 MOL1            1 RESIDUE      1      MOL     
       2 MOL1          143 RESIDUE      1      MOL     
@<SCITEGIC>MOL_PROPERTY
VM2 Rank
SciTegic.value.IntegerValue
5

@<SCITEGIC>MOL_PROPERTY
Conf_Id
SciTegic.value.IntegerValue
15685

@<SCITEGIC>MOL_PROPERTY
Probability
SciTegic.value.DoubleValue
0.86

@<SCITEGIC>MOL_PROPERTY
Sum Probability
SciTegic.value.DoubleValue
4.79

@<SCITEGIC>MOL_PROPERTY
Delta G
SciTegic.value.DoubleValue
0.127

@<SCITEGIC>MOL_PROPERTY
G
SciTegic.value.DoubleValue
490.421

@<SCITEGIC>MOL_PROPERTY
E
SciTegic.value.DoubleValue
305.807

@<SCITEGIC>MOL_PROPERTY
-TS
SciTegic.value.DoubleValue
184.614

@<SCITEGIC>MOL_PROPERTY
U+W
SciTegic.value.DoubleValue
179.719

@<SCITEGIC>MOL_PROPERTY
U
SciTegic.value.DoubleValue
240.582

@<SCITEGIC>MOL_PROPERTY
W
SciTegic.value.DoubleValue
-60.863

@<SCITEGIC>MOL_PROPERTY
W(PB)
SciTegic.value.DoubleValue
-66.889

@<SCITEGIC>MOL_PROPERTY
W(SA)
SciTegic.value.DoubleValue
6.025

@<SCITEGIC>MOL_PROPERTY
Valence
SciTegic.value.DoubleValue
159.271

@<SCITEGIC>MOL_PROPERTY
Coulomb
SciTegic.value.DoubleValue
100.929

@<SCITEGIC>MOL_PROPERTY
VdW
SciTegic.value.DoubleValue
-19.618

@<SCITEGIC>MOL_PROPERTY
VdW6
SciTegic.value.DoubleValue
-181.141

@<SCITEGIC>MOL_PROPERTY
VdW12
SciTegic.value.DoubleValue
161.523

@<SCITEGIC>MOL_PROPERTY
Bond
SciTegic.value.DoubleValue
5.222

@<SCITEGIC>MOL_PROPERTY
Angle
SciTegic.value.DoubleValue
12.648

@<SCITEGIC>MOL_PROPERTY
Pdih
SciTegic.value.DoubleValue
141.397

@<SCITEGIC>MOL_PROPERTY
Idih
SciTegic.value.DoubleValue
0.004

@<SCITEGIC>MOL_PROPERTY
Tether
SciTegic.value.DoubleValue
0.000

@<TRIPOS>MOLECULE
CD_guest-s20_vm2_single.mol2 : vm2 host+ligand conformer 6
         143         148           2
SMALL
USER_CHARGES
 
@<TRIPOS>ATOM
       1    C1      16.266087   15.247160   21.305790 C.3        1 MOL1         0.2972
       2    H1      15.192204   15.067441   21.169014 H          1 MOL1         0.0751
       3    O1      16.612517   16.623475   21.050665 O.3        1 MOL1        -0.3740
       4    C2      16.685660   14.871591   22.748537 C.3        1 MOL1         0.1003
       5    H2      16.481067   13.800827   22.878048 H          1 MOL1         0.0783
       6    O2      15.938147   15.610169   23.724168 O.3        1 MOL1        -0.5519
       7    H3      16.411160   15.445196   24.570881 H          1 MOL1         0.3769
       8    C3      18.200531   15.089854   22.963351 C.3        1 MOL1         0.1053
       9    H4      18.401112   16.168692   22.918346 H          1 MOL1         0.0783
      10    O3      18.566149   14.577827   24.249928 O.3        1 MOL1        -0.5519
      11    H5      19.504773   14.851698   24.403646 H          1 MOL1         0.3769
      12    C4      19.036243   14.396206   21.855679 C.3        1 MOL1         0.1018
      13    H6      19.069368   13.315234   22.045257 H          1 MOL1         0.0783
      14    C5      18.469975   14.641858   20.429623 C.3        1 MOL1         0.1043
      15    H7      18.690763   15.677939   20.143554 H          1 MOL1         0.0783
      16    O4      17.036151   14.422339   20.406774 O.3        1 MOL1        -0.3740
      17    C6      19.102279   13.715791   19.367311 C.3        1 MOL1         0.0138
      18    H8      20.188882   13.873184   19.354155 H          1 MOL1         0.0794
      19    H9      18.715423   13.997449   18.378878 H          1 MOL1         0.0794
      20    O5      18.806781   12.343226   19.641987 O.3        1 MOL1        -0.5486
      21    H10     17.828534   12.288190   19.725225 H          1 MOL1         0.3769
      22    C7      15.037971   20.295987   20.017723 C.3        1 MOL1         0.2972
      23    H11     14.488000   21.151271   19.604642 H          1 MOL1         0.0751
      24    O6      16.261557   20.716608   20.656796 O.3        1 MOL1        -0.3740
      25    C8      14.160077   19.494785   21.017848 C.3        1 MOL1         0.1003
      26    H12     13.309538   19.095266   20.450904 H          1 MOL1         0.0783
      27    O7      13.656627   20.344263   22.059870 O.3        1 MOL1        -0.5519
      28    H13     14.426929   20.564574   22.640337 H          1 MOL1         0.3769
      29    C9      14.952860   18.288869   21.591042 C.3        1 MOL1         0.1053
      30    H14     15.767126   18.682907   22.215094 H          1 MOL1         0.0783
      31    O8      14.096108   17.455266   22.381011 O.3        1 MOL1        -0.5519
      32    H15     14.689873   16.849784   22.889817 H          1 MOL1         0.3769
      33    C10     15.582260   17.436618   20.455194 C.3        1 MOL1         0.1018
      34    H16     14.801274   16.824148   19.985304 H          1 MOL1         0.0783
      35    C11     16.265995   18.291911   19.354797 C.3        1 MOL1         0.1043
      36    H17     17.203849   18.689738   19.759165 H          1 MOL1         0.0783
      37    O9      15.400855   19.386063   18.959132 O.3        1 MOL1        -0.3740
      38    C12     16.610250   17.478483   18.087856 C.3        1 MOL1         0.0138
      39    H18     17.274265   16.648749   18.363779 H          1 MOL1         0.0794
      40    H19     17.162251   18.125729   17.393387 H          1 MOL1         0.0794
      41    O10     15.425904   16.975412   17.462417 O.3        1 MOL1        -0.5486
      42    H20     14.841819   17.753899   17.322702 H          1 MOL1         0.3769
      43    C13     18.285613   23.884403   22.343701 C.3        1 MOL1         0.2972
      44    H21     18.630273   24.827405   22.786036 H          1 MOL1         0.0751
      45    O11     19.382906   23.015801   21.990657 O.3        1 MOL1        -0.3740
      46    C14     17.349648   23.132461   23.322362 C.3        1 MOL1         0.1003
      47    H22     16.454302   23.752842   23.459005 H          1 MOL1         0.0783
      48    O12     17.965229   22.928593   24.601599 O.3        1 MOL1        -0.5519
      49    H23     18.924798   22.747957   24.440332 H          1 MOL1         0.3769
      50    C15     16.898900   21.787793   22.707923 C.3        1 MOL1         0.1053
      51    H24     17.781914   21.143474   22.595900 H          1 MOL1         0.0783
      52    O13     15.957776   21.171533   23.592467 O.3        1 MOL1        -0.5519
      53    H25     16.367515   21.249554   24.482956 H          1 MOL1         0.3769
      54    C16     16.268249   22.002014   21.306307 C.3        1 MOL1         0.1018
      55    H26     15.253803   22.401995   21.433948 H          1 MOL1         0.0783
      56    C17     17.104443   22.961276   20.406700 C.3        1 MOL1         0.1043
      57    H27     17.997291   22.423398   20.063582 H          1 MOL1         0.0783
      58    O14     17.513454   24.138311   21.150648 O.3        1 MOL1        -0.3740
      59    C18     16.344467   23.438262   19.149464 C.3        1 MOL1         0.0138
      60    H28     16.124778   22.570356   18.513671 H          1 MOL1         0.0794
      61    H29     16.998949   24.106823   18.574229 H          1 MOL1         0.0794
      62    O15     15.132690   24.111940   19.501709 O.3        1 MOL1        -0.5486
      63    H30     15.392020   24.852116   20.094510 H          1 MOL1         0.3769
      64    C19     23.510485   22.626048   21.850143 C.3        1 MOL1         0.2972
      65    H31     24.595841   22.783831   21.883822 H          1 MOL1         0.0751
      66    O16     23.177513   21.359200   21.243217 O.3        1 MOL1        -0.3740
      67    C20     22.913322   22.685134   23.280374 C.3        1 MOL1         0.1003
      68    H32     23.120703   23.688487   23.674000 H          1 MOL1         0.0783
      69    O17     23.544795   21.718995   24.136993 O.3        1 MOL1        -0.5519
      70    H33     22.830638   21.199569   24.593172 H          1 MOL1         0.3769
      71    C21     21.373567   22.510791   23.239402 C.3        1 MOL1         0.1053
      72    H34     21.148477   21.488299   22.907890 H          1 MOL1         0.0783
      73    O18     20.827585   22.733941   24.543489 O.3        1 MOL1        -0.5519
      74    H35     21.054575   21.922117   25.068990 H          1 MOL1         0.3769
      75    C22     20.720594   23.494016   22.234149 C.3        1 MOL1         0.1018
      76    H36     20.728111   24.504640   22.663094 H          1 MOL1         0.0783
      77    C23     21.452075   23.513360   20.865167 C.3        1 MOL1         0.1043
      78    H37     21.244759   22.572675   20.340648 H          1 MOL1         0.0783
      79    O19     22.878054   23.669221   21.077606 O.3        1 MOL1        -0.3740
      80    C24     20.984689   24.677297   19.967661 C.3        1 MOL1         0.0138
      81    H38     21.239351   25.631267   20.448384 H          1 MOL1         0.0794
      82    H39     19.892735   24.637012   19.858930 H          1 MOL1         0.0794
      83    O20     21.604831   24.579467   18.683948 O.3        1 MOL1        -0.5486
      84    H40     22.566111   24.458205   18.854427 H          1 MOL1         0.3769
      85    C25     24.837696   17.712461   20.261603 C.3        1 MOL1         0.2972
      86    H41     25.406559   16.858957   19.871395 H          1 MOL1         0.0751
      87    O21     23.569307   17.290686   20.806958 O.3        1 MOL1        -0.3740
      88    C26     25.659506   18.491581   21.323418 C.3        1 MOL1         0.1003
      89    H42     26.546480   18.886726   20.811900 H          1 MOL1         0.0783
      90    O22     26.093771   17.627402   22.384850 O.3        1 MOL1        -0.5519
      91    H43     25.294826   17.439897   22.937789 H          1 MOL1         0.3769
      92    C27     24.854305   19.702545   21.866457 C.3        1 MOL1         0.1053
      93    H44     24.013142   19.314062   22.457139 H          1 MOL1         0.0783
      94    O23     25.701487   20.507842   22.694488 O.3        1 MOL1        -0.5519
      95    H45     25.097406   20.970559   23.325362 H          1 MOL1         0.3769
      96    C28     24.271818   20.576655   20.717430 C.3        1 MOL1         0.1018
      97    H46     25.062643   21.222004   20.312840 H          1 MOL1         0.0783
      98    C29     23.672219   19.739258   19.554327 C.3        1 MOL1         0.1043
      99    H47     22.706063   19.338258   19.883609 H          1 MOL1         0.0783
     100    O24     24.556260   18.645732   19.198624 O.3        1 MOL1        -0.3740
     101    C30     23.419029   20.578693   18.282351 C.3        1 MOL1         0.0138
     102    H48     22.740683   21.407114   18.528104 H          1 MOL1         0.0794
     103    H49     22.912924   19.948111   17.539343 H          1 MOL1         0.0794
     104    O25     24.646137   21.086327   17.749380 O.3        1 MOL1        -0.5486
     105    H50     25.235548   20.307420   17.637340 H          1 MOL1         0.3769
     106    C31     21.416284   14.187660   22.431366 C.3        1 MOL1         0.2972
     107    H51     21.038311   13.266071   22.891496 H          1 MOL1         0.0751
     108    O26     20.348067   14.990262   21.885257 O.3        1 MOL1        -0.3740
     109    C32     22.190531   15.026555   23.479462 C.3        1 MOL1         0.1003
     110    H52     23.041915   14.423690   23.820446 H          1 MOL1         0.0783
     111    O27     21.342992   15.319200   24.603015 O.3        1 MOL1        -0.5519
     112    H53     21.526646   16.254746   24.884523 H          1 MOL1         0.3769
     113    C33     22.754076   16.319371   22.838696 C.3        1 MOL1         0.1053
     114    H54     21.903749   16.966795   22.599487 H          1 MOL1         0.0783
     115    O28     23.628691   16.982329   23.761202 O.3        1 MOL1        -0.5519
     116    H55     23.039769   17.452402   24.410058 H          1 MOL1         0.3769
     117    C34     23.520119   16.037009   21.518478 C.3        1 MOL1         0.1018
     118    H56     24.521470   15.660152   21.762942 H          1 MOL1         0.0783
     119    C35     22.791824   15.022405   20.592658 C.3        1 MOL1         0.1043
     120    H57     21.931970   15.530998   20.136776 H          1 MOL1         0.0783
     121    O29     22.332433   13.881365   21.359202 O.3        1 MOL1        -0.3740
     122    C36     23.677147   14.492757   19.442826 C.3        1 MOL1         0.0138
     123    H58     23.945186   15.328568   18.783195 H          1 MOL1         0.0794
     124    H59     23.090887   13.781149   18.846096 H          1 MOL1         0.0794
     125    O30     24.858432   13.862287   19.945768 O.3        1 MOL1        -0.5486
     126    H60     24.553192   13.156577   20.558537 H          1 MOL1         0.3769
     127    C1      20.995350   19.114870   25.129154 C.2        1 MOL1         0.6132
     128    O1      21.534352   20.184563   25.343235 O.co2      1 MOL1        -0.6749
     129    O2      21.553970   18.041724   25.262435 O.co2      1 MOL1        -0.6749
     130    C2      19.540158   19.123606   24.667868 C.3        1 MOL1        -0.1955
     131    H1      19.087915   20.084639   24.938154 H          1 MOL1         0.0733
     132    H2      19.015655   18.364719   25.259434 H          1 MOL1         0.0733
     133    C3      19.318338   18.842812   23.189369 C.2        1 MOL1        -0.1395
     134    H3      18.303079   18.541942   22.934336 H          1 MOL1         0.0816
     135    C4      20.249980   18.902363   22.231758 C.2        1 MOL1        -0.1394
     136    H4      21.273748   19.195526   22.460503 H          1 MOL1         0.0816
     137    C5      19.995809   18.532288   20.789101 C.3        1 MOL1        -0.1826
     138    H5      20.836638   17.942131   20.402888 H          1 MOL1         0.0736
     139    H6      19.109356   17.890960   20.720335 H          1 MOL1         0.0736
     140    C6      19.792428   19.786311   19.919857 C.3        1 MOL1        -0.2882
     141    H7      19.601800   19.513109   18.874586 H          1 MOL1         0.0749
     142    H8      18.938875   20.367700   20.285910 H          1 MOL1         0.0749
     143    H9      20.677302   20.430715   19.952711 H          1 MOL1         0.0749
@<TRIPOS>BOND
    1     1     2    1
    2     1     3    1
    3     1     4    1
    4     4     5    1
    5     4     6    1
    6     6     7    1
    7     4     8    1
    8     8     9    1
    9     8    10    1
   10    10    11    1
   11     8    12    1
   12    12    13    1
   13    12    14    1
   14    14    15    1
   15     1    16    1
   16    14    16    1
   17    14    17    1
   18    17    18    1
   19    17    19    1
   20    17    20    1
   21    20    21    1
   22    22    23    1
   23    22    24    1
   24    22    25    1
   25    25    26    1
   26    25    27    1
   27    27    28    1
   28    25    29    1
   29    29    30    1
   30    29    31    1
   31    31    32    1
   32     3    33    1
   33    29    33    1
   34    33    34    1
   35    33    35    1
   36    35    36    1
   37    22    37    1
   38    35    37    1
   39    35    38    1
   40    38    39    1
   41    38    40    1
   42    38    41    1
   43    41    42    1
   44    43    44    1
   45    43    45    1
   46    43    46    1
   47    46    47    1
   48    46    48    1
   49    48    49    1
   50    46    50    1
   51    50    51    1
   52    50    52    1
   53    52    53    1
   54    24    54    1
   55    50    54    1
   56    54    55    1
   57    54    56    1
   58    56    57    1
   59    43    58    1
   60    56    58    1
   61    56    59    1
   62    59    60    1
   63    59    61    1
   64    59    62    1
   65    62    63    1
   66    64    65    1
   67    64    66    1
   68    64    67    1
   69    67    68    1
   70    67    69    1
   71    69    70    1
   72    67    71    1
   73    71    72    1
   74    71    73    1
   75    73    74    1
   76    45    75    1
   77    71    75    1
   78    75    76    1
   79    75    77    1
   80    77    78    1
   81    64    79    1
   82    77    79    1
   83    77    80    1
   84    80    81    1
   85    80    82    1
   86    80    83    1
   87    83    84    1
   88    85    86    1
   89    85    87    1
   90    85    88    1
   91    88    89    1
   92    88    90    1
   93    90    91    1
   94    88    92    1
   95    92    93    1
   96    92    94    1
   97    94    95    1
   98    66    96    1
   99    92    96    1
  100    96    97    1
  101    96    98    1
  102    98    99    1
  103    85   100    1
  104    98   100    1
  105    98   101    1
  106   101   102    1
  107   101   103    1
  108   101   104    1
  109   104   105    1
  110   106   107    1
  111    12   108    1
  112   106   108    1
  113   106   109    1
  114   109   110    1
  115   109   111    1
  116   111   112    1
  117   109   113    1
  118   113   114    1
  119   113   115    1
  120   115   116    1
  121    87   117    1
  122   113   117    1
  123   117   118    1
  124   117   119    1
  125   119   120    1
  126   106   121    1
  127   119   121    1
  128   119   122    1
  129   122   123    1
  130   122   124    1
  131   122   125    1
  132   125   126    1
  133   127   128    1
  134   127   129    2
  135   127   130    1
  136   130   131    1
  137   130   132    1
  138   130   133    1
  139   133   134    1
  140   133   135    2
  141   135   136    1
  142   135   137    1
  143   137   138    1
  144   137   139    1
  145   137   140    1
  146   140   141    1
  147   140   142    1
  148   140   143    1
@<TRIPOS>SUBSTRUCTURE
       1 MOL1            1 RESIDUE      1      MOL     
       2 MOL1          143 RESIDUE      1      MOL     
@<SCITEGIC>MOL_PROPERTY
VM2 Rank
SciTegic.value.IntegerValue
6

@<SCITEGIC>MOL_PROPERTY
Conf_Id
SciTegic.value.IntegerValue
20582

@<SCITEGIC>MOL_PROPERTY
Probability
SciTegic.value.DoubleValue
0.84

@<SCITEGIC>MOL_PROPERTY
Sum Probability
SciTegic.value.DoubleValue
5.63

@<SCITEGIC>MOL_PROPERTY
Delta G
SciTegic.value.DoubleValue
0.141

@<SCITEGIC>MOL_PROPERTY
G
SciTegic.value.DoubleValue
490.436

@<SCITEGIC>MOL_PROPERTY
E
SciTegic.value.DoubleValue
305.190

@<SCITEGIC>MOL_PROPERTY
-TS
SciTegic.value.DoubleValue
185.245

@<SCITEGIC>MOL_PROPERTY
U+W
SciTegic.value.DoubleValue
179.102

@<SCITEGIC>MOL_PROPERTY
U
SciTegic.value.DoubleValue
239.440

@<SCITEGIC>MOL_PROPERTY
W
SciTegic.value.DoubleValue
-60.338

@<SCITEGIC>MOL_PROPERTY
W(PB)
SciTegic.value.DoubleValue
-66.325

@<SCITEGIC>MOL_PROPERTY
W(SA)
SciTegic.value.DoubleValue
5.987

@<SCITEGIC>MOL_PROPERTY
Valence
SciTegic.value.DoubleValue
160.241

@<SCITEGIC>MOL_PROPERTY
Coulomb
SciTegic.value.DoubleValue
100.124

@<SCITEGIC>MOL_PROPERTY
VdW
SciTegic.value.DoubleValue
-20.925

@<SCITEGIC>MOL_PROPERTY
VdW6
SciTegic.value.DoubleValue
-182.696

@<SCITEGIC>MOL_PROPERTY
VdW12
SciTegic.value.DoubleValue
161.771

@<SCITEGIC>MOL_PROPERTY
Bond
SciTegic.value.DoubleValue
5.119

@<SCITEGIC>MOL_PROPERTY
Angle
SciTegic.value.DoubleValue
12.825

@<SCITEGIC>MOL_PROPERTY
Pdih
SciTegic.value.DoubleValue
142.291

@<SCITEGIC>MOL_PROPERTY
Idih
SciTegic.value.DoubleValue
0.005

@<SCITEGIC>MOL_PROPERTY
Tether
SciTegic.value.DoubleValue
0.000

@<TRIPOS>MOLECULE
CD_guest-s20_vm2_single.mol2 : vm2 host+ligand conformer 7
         143         148           2
SMALL
USER_CHARGES
 
@<TRIPOS>ATOM
       1    C1      16.264035   15.071131   21.291208 C.3        1 MOL1         0.2972
       2    H1      15.186324   14.906421   21.168303 H          1 MOL1         0.0751
       3    O1      16.579467   16.473145   21.422699 O.3        1 MOL1        -0.3740
       4    C2      16.764745   14.328018   22.552369 C.3        1 MOL1         0.1003
       5    H2      16.553139   13.260772   22.406048 H          1 MOL1         0.0783
       6    O2      16.080040   14.787046   23.726867 O.3        1 MOL1        -0.5519
       7    H3      16.564155   14.370546   24.474723 H          1 MOL1         0.3769
       8    C3      18.292746   14.486177   22.735132 C.3        1 MOL1         0.1053
       9    H4      18.495000   15.532888   22.999737 H          1 MOL1         0.0783
      10    O3      18.712763   13.622708   23.797992 O.3        1 MOL1        -0.5519
      11    H5      19.580379   13.978179   24.112229 H          1 MOL1         0.3769
      12    C4      19.071969   14.161070   21.429107 C.3        1 MOL1         0.1018
      13    H6      19.135996   13.073565   21.291869 H          1 MOL1         0.0783
      14    C5      18.413702   14.791793   20.173182 C.3        1 MOL1         0.1043
      15    H7      18.595283   15.872673   20.204095 H          1 MOL1         0.0783
      16    O4      16.987859   14.541067   20.163281 O.3        1 MOL1        -0.3740
      17    C6      18.997026   14.250971   18.849119 C.3        1 MOL1         0.0138
      18    H8      20.076923   14.449034   18.824858 H          1 MOL1         0.0794
      19    H9      18.542151   14.799269   18.013412 H          1 MOL1         0.0794
      20    O5      18.748740   12.848633   18.714643 O.3        1 MOL1        -0.5486
      21    H10     17.779689   12.732703   18.834824 H          1 MOL1         0.3769
      22    C7      14.836876   20.244652   20.862540 C.3        1 MOL1         0.2972
      23    H11     14.124520   21.033820   20.590736 H          1 MOL1         0.0751
      24    O6      16.101834   20.793248   21.277756 O.3        1 MOL1        -0.3740
      25    C8      14.267963   19.391768   22.027592 C.3        1 MOL1         0.1003
      26    H12     13.299563   18.993968   21.697511 H          1 MOL1         0.0783
      27    O7      14.074567   20.185702   23.207410 O.3        1 MOL1        -0.5519
      28    H13     13.859020   19.534217   23.912038 H          1 MOL1         0.3769
      29    C9      15.188209   18.190366   22.351156 C.3        1 MOL1         0.1053
      30    H14     16.126776   18.579160   22.768885 H          1 MOL1         0.0783
      31    O8      14.543419   17.333723   23.302574 O.3        1 MOL1        -0.5519
      32    H15     15.145703   16.561002   23.443581 H          1 MOL1         0.3769
      33    C10     15.525357   17.389741   21.071230 C.3        1 MOL1         0.1018
      34    H16     14.622499   16.867924   20.727517 H          1 MOL1         0.0783
      35    C11     16.033672   18.315963   19.936540 C.3        1 MOL1         0.1043
      36    H17     17.003715   18.735047   20.230596 H          1 MOL1         0.0783
      37    O9      15.071051   19.378842   19.731478 O.3        1 MOL1        -0.3740
      38    C12     16.212097   17.592069   18.584149 C.3        1 MOL1         0.0138
      39    H18     16.953694   16.792292   18.697303 H          1 MOL1         0.0794
      40    H19     16.611838   18.307371   17.853128 H          1 MOL1         0.0794
      41    O10     14.969953   17.052567   18.122836 O.3        1 MOL1        -0.5486
      42    H20     14.332821   17.801069   18.124941 H          1 MOL1         0.3769
      43    C13     18.414489   24.190129   21.141592 C.3        1 MOL1         0.2972
      44    H21     18.854895   25.190859   21.044617 H          1 MOL1         0.0751
      45    O11     19.435006   23.170905   21.214765 O.3        1 MOL1        -0.3740
      46    C14     17.482820   24.106779   22.380749 C.3        1 MOL1         0.1003
      47    H22     16.650092   24.799427   22.203844 H          1 MOL1         0.0783
      48    O12     18.166759   24.514170   23.574898 O.3        1 MOL1        -0.5519
      49    H23     18.814140   23.797044   23.788666 H          1 MOL1         0.3769
      50    C15     16.888016   22.678753   22.506676 C.3        1 MOL1         0.1053
      51    H24     17.704459   21.983465   22.745064 H          1 MOL1         0.0783
      52    O13     15.889788   22.629071   23.534314 O.3        1 MOL1        -0.5519
      53    H25     15.445317   21.750033   23.453186 H          1 MOL1         0.3769
      54    C16     16.231849   22.224744   21.178002 C.3        1 MOL1         0.1018
      55    H26     15.254550   22.719480   21.101667 H          1 MOL1         0.0783
      56    C17     17.076360   22.550936   19.911733 C.3        1 MOL1         0.1043
      57    H27     17.908912   21.839564   19.854518 H          1 MOL1         0.0783
      58    O14     17.596074   23.901862   19.989667 O.3        1 MOL1        -0.3740
      59    C18     16.279032   22.442100   18.592757 C.3        1 MOL1         0.0138
      60    H28     15.958203   21.403175   18.447878 H          1 MOL1         0.0794
      61    H29     16.945882   22.694250   17.757462 H          1 MOL1         0.0794
      62    O15     15.144642   23.314200   18.600903 O.3        1 MOL1        -0.5486
      63    H30     15.495428   24.218233   18.762480 H          1 MOL1         0.3769
      64    C19     23.441888   22.539817   22.066814 C.3        1 MOL1         0.2972
      65    H31     24.491137   22.619255   22.376405 H          1 MOL1         0.0751
      66    O16     23.206877   21.358822   21.269520 O.3        1 MOL1        -0.3740
      67    C20     22.509814   22.499375   23.306067 C.3        1 MOL1         0.1003
      68    H32     22.638870   23.448279   23.842304 H          1 MOL1         0.0783
      69    O17     22.877094   21.420420   24.182996 O.3        1 MOL1        -0.5519
      70    H33     22.057580   20.889660   24.370660 H          1 MOL1         0.3769
      71    C21     21.027863   22.408684   22.860268 C.3        1 MOL1         0.1053
      72    H34     20.881159   21.440718   22.364174 H          1 MOL1         0.0783
      73    O18     20.167574   22.505955   24.001307 O.3        1 MOL1        -0.5519
      74    H35     20.194239   21.609956   24.429620 H          1 MOL1         0.3769
      75    C22     20.679395   23.531615   21.847326 C.3        1 MOL1         0.1018
      76    H36     20.600730   24.482285   22.391070 H          1 MOL1         0.0783
      77    C23     21.737233   23.659959   20.715968 C.3        1 MOL1         0.1043
      78    H37     21.639802   22.789788   20.053177 H          1 MOL1         0.0783
      79    O19     23.070224   23.693303   21.282276 O.3        1 MOL1        -0.3740
      80    C24     21.560562   24.927985   19.851006 C.3        1 MOL1         0.0138
      81    H38     20.599780   24.869376   19.322491 H          1 MOL1         0.0794
      82    H39     22.351395   24.948180   19.089197 H          1 MOL1         0.0794
      83    O20     21.611569   26.112780   20.651319 O.3        1 MOL1        -0.5486
      84    H40     22.474929   26.089978   21.121076 H          1 MOL1         0.3769
      85    C25     24.979105   17.690476   20.498861 C.3        1 MOL1         0.2972
      86    H41     25.614691   16.854990   20.178599 H          1 MOL1         0.0751
      87    O21     23.649727   17.236129   20.834226 O.3        1 MOL1        -0.3740
      88    C26     25.616270   18.448581   21.694899 C.3        1 MOL1         0.1003
      89    H42     26.562637   18.873044   21.336134 H          1 MOL1         0.0783
      90    O22     25.902825   17.559849   22.785544 O.3        1 MOL1        -0.5519
      91    H43     25.034663   17.358583   23.215552 H          1 MOL1         0.3769
      92    C27     24.710322   19.629431   22.135990 C.3        1 MOL1         0.1053
      93    H44     23.775228   19.212767   22.535143 H          1 MOL1         0.0783
      94    O23     25.373012   20.392431   23.151239 O.3        1 MOL1        -0.5519
      95    H45     24.649784   20.780831   23.701897 H          1 MOL1         0.3769
      96    C28     24.350398   20.546002   20.929074 C.3        1 MOL1         0.1018
      97    H46     25.215177   21.171234   20.670835 H          1 MOL1         0.0783
      98    C29     23.922243   19.734809   19.674895 C.3        1 MOL1         0.1043
      99    H47     22.917854   19.331733   19.856830 H          1 MOL1         0.0783
     100    O24     24.849421   18.647362   19.427656 O.3        1 MOL1        -0.3740
     101    C30     23.854094   20.595474   18.394124 C.3        1 MOL1         0.0138
     102    H48     23.142075   21.416530   18.551259 H          1 MOL1         0.0794
     103    H49     23.466229   19.975843   17.574591 H          1 MOL1         0.0794
     104    O25     25.142867   21.116679   18.055578 O.3        1 MOL1        -0.5486
     105    H50     25.746605   20.341606   18.016414 H          1 MOL1         0.3769
     106    C31     21.434172   13.982458   22.116931 C.3        1 MOL1         0.2972
     107    H51     21.063174   13.022538   22.497891 H          1 MOL1         0.0751
     108    O26     20.379973   14.761889   21.514244 O.3        1 MOL1        -0.3740
     109    C32     22.082786   14.807394   23.257455 C.3        1 MOL1         0.1003
     110    H52     22.953391   14.241577   23.613266 H          1 MOL1         0.0783
     111    O27     21.167323   14.975095   24.351123 O.3        1 MOL1        -0.5519
     112    H53     21.045715   15.952818   24.486443 H          1 MOL1         0.3769
     113    C33     22.594383   16.165458   22.712527 C.3        1 MOL1         0.1053
     114    H54     21.731308   16.750718   22.371791 H          1 MOL1         0.0783
     115    O28     23.274689   16.881569   23.750093 O.3        1 MOL1        -0.5519
     116    H55     22.553754   17.303893   24.287719 H          1 MOL1         0.3769
     117    C34     23.530856   15.958569   21.493440 C.3        1 MOL1         0.1018
     118    H56     24.499812   15.585850   21.849685 H          1 MOL1         0.0783
     119    C35     22.938913   14.964889   20.453166 C.3        1 MOL1         0.1043
     120    H57     22.106307   15.462318   19.938346 H          1 MOL1         0.0783
     121    O29     22.454114   13.769414   21.116842 O.3        1 MOL1        -0.3740
     122    C36     23.955458   14.527432   19.375351 C.3        1 MOL1         0.0138
     123    H58     24.250575   15.405148   18.785169 H          1 MOL1         0.0794
     124    H59     23.462654   13.824272   18.690586 H          1 MOL1         0.0794
     125    O30     25.108033   13.919845   19.965959 O.3        1 MOL1        -0.5486
     126    H60     24.776492   13.167078   20.504467 H          1 MOL1         0.3769
     127    C1      20.206749   18.746371   24.261411 C.2        1 MOL1         0.6132
     128    O1      20.733871   17.710940   24.621520 O.co2      1 MOL1        -0.6749
     129    O2      20.578353   19.847373   24.621557 O.co2      1 MOL1        -0.6749
     130    C2      19.034445   18.661456   23.289474 C.3        1 MOL1        -0.1955
     131    H1      18.411015   19.551342   23.436370 H          1 MOL1         0.0733
     132    H2      18.422578   17.797224   23.569343 H          1 MOL1         0.0733
     133    C3      19.474441   18.548609   21.840888 C.2        1 MOL1        -0.1395
     134    H3      19.829844   17.565944   21.541809 H          1 MOL1         0.0816
     135    C4      19.438272   19.570081   20.977697 C.2        1 MOL1        -0.1394
     136    H4      19.068001   20.532335   21.322069 H          1 MOL1         0.0816
     137    C5      19.875236   19.562328   19.523139 C.3        1 MOL1        -0.1826
     138    H5      19.048010   19.924028   18.898896 H          1 MOL1         0.0736
     139    H6      20.682779   20.295130   19.396316 H          1 MOL1         0.0736
     140    C6      20.341568   18.192235   18.985656 C.3        1 MOL1        -0.2882
     141    H7      19.515973   17.473026   18.991504 H          1 MOL1         0.0749
     142    H8      20.698410   18.285348   17.952199 H          1 MOL1         0.0749
     143    H9      21.162121   17.786555   19.590760 H          1 MOL1         0.0749
@<TRIPOS>BOND
    1     1     2    1
    2     1     3    1
    3     1     4    1
    4     4     5    1
    5     4     6    1
    6     6     7    1
    7     4     8    1
    8     8     9    1
    9     8    10    1
   10    10    11    1
   11     8    12    1
   12    12    13    1
   13    12    14    1
   14    14    15    1
   15     1    16    1
   16    14    16    1
   17    14    17    1
   18    17    18    1
   19    17    19    1
   20    17    20    1
   21    20    21    1
   22    22    23    1
   23    22    24    1
   24    22    25    1
   25    25    26    1
   26    25    27    1
   27    27    28    1
   28    25    29    1
   29    29    30    1
   30    29    31    1
   31    31    32    1
   32     3    33    1
   33    29    33    1
   34    33    34    1
   35    33    35    1
   36    35    36    1
   37    22    37    1
   38    35    37    1
   39    35    38    1
   40    38    39    1
   41    38    40    1
   42    38    41    1
   43    41    42    1
   44    43    44    1
   45    43    45    1
   46    43    46    1
   47    46    47    1
   48    46    48    1
   49    48    49    1
   50    46    50    1
   51    50    51    1
   52    50    52    1
   53    52    53    1
   54    24    54    1
   55    50    54    1
   56    54    55    1
   57    54    56    1
   58    56    57    1
   59    43    58    1
   60    56    58    1
   61    56    59    1
   62    59    60    1
   63    59    61    1
   64    59    62    1
   65    62    63    1
   66    64    65    1
   67    64    66    1
   68    64    67    1
   69    67    68    1
   70    67    69    1
   71    69    70    1
   72    67    71    1
   73    71    72    1
   74    71    73    1
   75    73    74    1
   76    45    75    1
   77    71    75    1
   78    75    76    1
   79    75    77    1
   80    77    78    1
   81    64    79    1
   82    77    79    1
   83    77    80    1
   84    80    81    1
   85    80    82    1
   86    80    83    1
   87    83    84    1
   88    85    86    1
   89    85    87    1
   90    85    88    1
   91    88    89    1
   92    88    90    1
   93    90    91    1
   94    88    92    1
   95    92    93    1
   96    92    94    1
   97    94    95    1
   98    66    96    1
   99    92    96    1
  100    96    97    1
  101    96    98    1
  102    98    99    1
  103    85   100    1
  104    98   100    1
  105    98   101    1
  106   101   102    1
  107   101   103    1
  108   101   104    1
  109   104   105    1
  110   106   107    1
  111    12   108    1
  112   106   108    1
  113   106   109    1
  114   109   110    1
  115   109   111    1
  116   111   112    1
  117   109   113    1
  118   113   114    1
  119   113   115    1
  120   115   116    1
  121    87   117    1
  122   113   117    1
  123   117   118    1
  124   117   119    1
  125   119   120    1
  126   106   121    1
  127   119   121    1
  128   119   122    1
  129   122   123    1
  130   122   124    1
  131   122   125    1
  132   125   126    1
  133   127   128    1
  134   127   129    2
  135   127   130    1
  136   130   131    1
  137   130   132    1
  138   130   133    1
  139   133   134    1
  140   133   135    2
  141   135   136    1
  142   135   137    1
  143   137   138    1
  144   137   139    1
  145   137   140    1
  146   140   141    1
  147   140   142    1
  148   140   143    1
@<TRIPOS>SUBSTRUCTURE
       1 MOL1            1 RESIDUE      1      MOL     
       2 MOL1          143 RESIDUE      1      MOL     
@<SCITEGIC>MOL_PROPERTY
VM2 Rank
SciTegic.value.IntegerValue
7

@<SCITEGIC>MOL_PROPERTY
Conf_Id
SciTegic.value.IntegerValue
24868

@<SCITEGIC>MOL_PROPERTY
Probability
SciTegic.value.DoubleValue
0.83

@<SCITEGIC>MOL_PROPERTY
Sum Probability
SciTegic.value.DoubleValue
6.46

@<SCITEGIC>MOL_PROPERTY
Delta G
SciTegic.value.DoubleValue
0.153

@<SCITEGIC>MOL_PROPERTY
G
SciTegic.value.DoubleValue
490.447

@<SCITEGIC>MOL_PROPERTY
E
SciTegic.value.DoubleValue
304.561

@<SCITEGIC>MOL_PROPERTY
-TS
SciTegic.value.DoubleValue
185.886

@<SCITEGIC>MOL_PROPERTY
U+W
SciTegic.value.DoubleValue
178.473

@<SCITEGIC>MOL_PROPERTY
U
SciTegic.value.DoubleValue
239.363

@<SCITEGIC>MOL_PROPERTY
W
SciTegic.value.DoubleValue
-60.875

@<SCITEGIC>MOL_PROPERTY
W(PB)
SciTegic.value.DoubleValue
-66.898

@<SCITEGIC>MOL_PROPERTY
W(SA)
SciTegic.value.DoubleValue
6.023

@<SCITEGIC>MOL_PROPERTY
Valence
SciTegic.value.DoubleValue
158.220

@<SCITEGIC>MOL_PROPERTY
Coulomb
SciTegic.value.DoubleValue
101.897

@<SCITEGIC>MOL_PROPERTY
VdW
SciTegic.value.DoubleValue
-20.755

@<SCITEGIC>MOL_PROPERTY
VdW6
SciTegic.value.DoubleValue
-183.197

@<SCITEGIC>MOL_PROPERTY
VdW12
SciTegic.value.DoubleValue
162.442

@<SCITEGIC>MOL_PROPERTY
Bond
SciTegic.value.DoubleValue
5.079

@<SCITEGIC>MOL_PROPERTY
Angle
SciTegic.value.DoubleValue
12.900

@<SCITEGIC>MOL_PROPERTY
Pdih
SciTegic.value.DoubleValue
140.240

@<SCITEGIC>MOL_PROPERTY
Idih
SciTegic.value.DoubleValue
0.001

@<SCITEGIC>MOL_PROPERTY
Tether
SciTegic.value.DoubleValue
0.000

@<TRIPOS>MOLECULE
CD_guest-s20_vm2_single.mol2 : vm2 host+ligand conformer 8
         143         148           2
SMALL
USER_CHARGES
 
@<TRIPOS>ATOM
       1    C1      16.308010   15.209125   20.719873 C.3        1 MOL1         0.2972
       2    H1      15.266540   15.029972   20.423110 H          1 MOL1         0.0751
       3    O1      16.526693   16.585207   21.091785 O.3        1 MOL1        -0.3740
       4    C2      16.713711   14.296466   21.905916 C.3        1 MOL1         0.1003
       5    H2      16.621703   13.256671   21.565906 H          1 MOL1         0.0783
       6    O2      15.865451   14.493355   23.043786 O.3        1 MOL1        -0.5519
       7    H3      16.285512   13.963340   23.758797 H          1 MOL1         0.3769
       8    C3      18.189573   14.538768   22.301389 C.3        1 MOL1         0.1053
       9    H4      18.276281   15.568022   22.673699 H          1 MOL1         0.0783
      10    O3      18.554761   13.621205   23.339458 O.3        1 MOL1        -0.5519
      11    H5      19.338718   14.024845   23.788673 H          1 MOL1         0.3769
      12    C4      19.125136   14.391951   21.068476 C.3        1 MOL1         0.1018
      13    H6      19.219095   13.332430   20.796116 H          1 MOL1         0.0783
      14    C5      18.595988   15.186640   19.842544 C.3        1 MOL1         0.1043
      15    H7      18.729593   16.259088   20.041298 H          1 MOL1         0.0783
      16    O4      17.191945   14.899199   19.622844 O.3        1 MOL1        -0.3740
      17    C6      19.347767   14.846196   18.536249 C.3        1 MOL1         0.0138
      18    H8      20.412621   15.080473   18.662994 H          1 MOL1         0.0794
      19    H9      18.963666   15.487211   17.731701 H          1 MOL1         0.0794
      20    O5      19.182996   13.467538   18.190910 O.3        1 MOL1        -0.5486
      21    H10     18.213356   13.306347   18.174391 H          1 MOL1         0.3769
      22    C7      14.676531   20.247611   21.525514 C.3        1 MOL1         0.2972
      23    H11     13.985288   21.091793   21.642250 H          1 MOL1         0.0751
      24    O6      16.027310   20.690205   21.282043 O.3        1 MOL1        -0.3740
      25    C8      14.655964   19.362380   22.795593 C.3        1 MOL1         0.1003
      26    H12     13.636883   18.968064   22.901596 H          1 MOL1         0.0783
      27    O7      14.991358   20.109702   23.971765 O.3        1 MOL1        -0.5519
      28    H13     15.137889   19.424303   24.662545 H          1 MOL1         0.3769
      29    C9      15.613697   18.160055   22.644347 C.3        1 MOL1         0.1053
      30    H14     16.641466   18.540814   22.609733 H          1 MOL1         0.0783
      31    O8      15.448505   17.290215   23.769878 O.3        1 MOL1        -0.5519
      32    H15     15.784091   16.402011   23.496084 H          1 MOL1         0.3769
      33    C10     15.350742   17.382334   21.331141 C.3        1 MOL1         0.1018
      34    H16     14.453785   16.762901   21.465609 H          1 MOL1         0.0783
      35    C11     15.174901   18.317970   20.100383 C.3        1 MOL1         0.1043
      36    H17     16.160590   18.720436   19.831221 H          1 MOL1         0.0783
      37    O9      14.275341   19.410740   20.419100 O.3        1 MOL1        -0.3740
      38    C12     14.613320   17.592584   18.857515 C.3        1 MOL1         0.0138
      39    H18     15.332060   16.828214   18.533308 H          1 MOL1         0.0794
      40    H19     14.516718   18.318304   18.038895 H          1 MOL1         0.0794
      41    O10     13.346432   16.990844   19.139685 O.3        1 MOL1        -0.5486
      42    H20     12.761429   17.716737   19.451966 H          1 MOL1         0.3769
      43    C13     18.441627   24.009916   20.836260 C.3        1 MOL1         0.2972
      44    H21     18.887006   24.990194   20.623503 H          1 MOL1         0.0751
      45    O11     19.458785   23.012209   21.067995 O.3        1 MOL1        -0.3740
      46    C14     17.478228   24.089426   22.052564 C.3        1 MOL1         0.1003
      47    H22     16.673597   24.783616   21.778540 H          1 MOL1         0.0783
      48    O12     18.149487   24.603405   23.213246 O.3        1 MOL1        -0.5519
      49    H23     18.769810   23.894627   23.517209 H          1 MOL1         0.3769
      50    C15     16.830254   22.706565   22.332249 C.3        1 MOL1         0.1053
      51    H24     17.617552   22.026224   22.686501 H          1 MOL1         0.0783
      52    O13     15.806854   22.831220   23.327025 O.3        1 MOL1        -0.5519
      53    H25     15.557212   21.911226   23.589973 H          1 MOL1         0.3769
      54    C16     16.208528   22.100141   21.045222 C.3        1 MOL1         0.1018
      55    H26     15.257712   22.604946   20.828759 H          1 MOL1         0.0783
      56    C17     17.130866   22.225965   19.804364 C.3        1 MOL1         0.1043
      57    H27     17.953937   21.510760   19.915757 H          1 MOL1         0.0783
      58    O14     17.659565   23.571801   19.706445 O.3        1 MOL1        -0.3740
      59    C18     16.403715   21.905867   18.479714 C.3        1 MOL1         0.0138
      60    H28     16.005820   20.883525   18.526550 H          1 MOL1         0.0794
      61    H29     17.134001   21.938360   17.660236 H          1 MOL1         0.0794
      62    O15     15.344366   22.836474   18.237331 O.3        1 MOL1        -0.5486
      63    H30     15.750582   23.730177   18.292845 H          1 MOL1         0.3769
      64    C19     23.449735   22.538870   22.083808 C.3        1 MOL1         0.2972
      65    H31     24.484023   22.665139   22.427259 H          1 MOL1         0.0751
      66    O16     23.277177   21.302173   21.358524 O.3        1 MOL1        -0.3740
      67    C20     22.474778   22.556511   23.290120 C.3        1 MOL1         0.1003
      68    H32     22.570647   23.537641   23.772636 H          1 MOL1         0.0783
      69    O17     22.834620   21.538169   24.239180 O.3        1 MOL1        -0.5519
      70    H33     22.001976   21.076188   24.522577 H          1 MOL1         0.3769
      71    C21     21.008223   22.414277   22.806469 C.3        1 MOL1         0.1053
      72    H34     20.884569   21.414752   22.374252 H          1 MOL1         0.0783
      73    O18     20.107802   22.584739   23.908817 O.3        1 MOL1        -0.5519
      74    H35     20.123272   21.724152   24.404988 H          1 MOL1         0.3769
      75    C22     20.677055   23.451131   21.701999 C.3        1 MOL1         0.1018
      76    H36     20.563736   24.437885   22.169557 H          1 MOL1         0.0783
      77    C23     21.770534   23.517321   20.599337 C.3        1 MOL1         0.1043
      78    H37     21.714702   22.597526   20.002682 H          1 MOL1         0.0783
      79    O19     23.080828   23.625416   21.207969 O.3        1 MOL1        -0.3740
      80    C24     21.601654   24.709946   19.631740 C.3        1 MOL1         0.0138
      81    H38     20.667431   24.584265   19.068605 H          1 MOL1         0.0794
      82    H39     22.424797   24.693158   18.904852 H          1 MOL1         0.0794
      83    O20     21.588658   25.953888   20.338176 O.3        1 MOL1        -0.5486
      84    H40     22.431750   25.992544   20.842395 H          1 MOL1         0.3769
      85    C25     25.146196   17.672807   20.756164 C.3        1 MOL1         0.2972
      86    H41     25.793349   16.825293   20.496444 H          1 MOL1         0.0751
      87    O21     23.791694   17.242467   21.011336 O.3        1 MOL1        -0.3740
      88    C26     25.704913   18.452298   21.976258 C.3        1 MOL1         0.1003
      89    H42     26.669633   18.877180   21.670768 H          1 MOL1         0.0783
      90    O22     25.926793   17.579098   23.094029 O.3        1 MOL1        -0.5519
      91    H43     25.034627   17.356680   23.458990 H          1 MOL1         0.3769
      92    C27     24.765196   19.633876   22.339583 C.3        1 MOL1         0.1053
      93    H44     23.814257   19.215406   22.697318 H          1 MOL1         0.0783
      94    O23     25.359737   20.430207   23.371003 O.3        1 MOL1        -0.5519
      95    H45     24.603728   20.850556   23.849812 H          1 MOL1         0.3769
      96    C28     24.463380   20.522874   21.096497 C.3        1 MOL1         0.1018
      97    H46     25.325461   21.171125   20.891102 H          1 MOL1         0.0783
      98    C29     24.146629   19.693633   19.820533 C.3        1 MOL1         0.1043
      99    H47     23.135477   19.280935   19.922893 H          1 MOL1         0.0783
     100    O24     25.097902   18.610802   19.662173 O.3        1 MOL1        -0.3740
     101    C30     24.173981   20.540604   18.529354 C.3        1 MOL1         0.0138
     102    H48     23.445612   21.357290   18.621120 H          1 MOL1         0.0794
     103    H49     23.857094   19.909728   17.688188 H          1 MOL1         0.0794
     104    O25     25.481600   21.069010   18.288697 O.3        1 MOL1        -0.5486
     105    H50     26.092487   20.298743   18.304964 H          1 MOL1         0.3769
     106    C31     21.353149   14.113570   22.072370 C.3        1 MOL1         0.2972
     107    H51     20.890509   13.175879   22.404260 H          1 MOL1         0.0751
     108    O26     20.408383   14.964033   21.387373 O.3        1 MOL1        -0.3740
     109    C32     21.922686   14.892066   23.284320 C.3        1 MOL1         0.1003
     110    H52     22.696925   14.265777   23.745836 H          1 MOL1         0.0783
     111    O27     20.882638   15.140416   24.247186 O.3        1 MOL1        -0.5519
     112    H53     20.992937   16.071268   24.575190 H          1 MOL1         0.3769
     113    C33     22.594530   16.206522   22.812723 C.3        1 MOL1         0.1053
     114    H54     21.805430   16.868833   22.437286 H          1 MOL1         0.0783
     115    O28     23.273882   16.827703   23.911162 O.3        1 MOL1        -0.5519
     116    H55     22.572332   17.283175   24.447615 H          1 MOL1         0.3769
     117    C34     23.599977   15.966863   21.654157 C.3        1 MOL1         0.1018
     118    H56     24.534614   15.569323   22.070763 H          1 MOL1         0.0783
     119    C35     23.056452   15.002004   20.563416 C.3        1 MOL1         0.1043
     120    H57     22.303053   15.540911   19.974535 H          1 MOL1         0.0783
     121    O29     22.450094   13.838747   21.176493 O.3        1 MOL1        -0.3740
     122    C36     24.143074   14.508484   19.582608 C.3        1 MOL1         0.0138
     123    H58     24.538346   15.367808   19.024913 H          1 MOL1         0.0794
     124    H59     23.677996   13.831885   18.853094 H          1 MOL1         0.0794
     125    O30     25.201641   13.840195   20.274820 O.3        1 MOL1        -0.5486
     126    H60     24.780855   13.110004   20.781187 H          1 MOL1         0.3769
     127    C1      20.379699   18.871127   24.457161 C.2        1 MOL1         0.6132
     128    O1      20.937834   17.897064   24.927826 O.co2      1 MOL1        -0.6749
     129    O2      20.554223   20.009411   24.850301 O.co2      1 MOL1        -0.6749
     130    C2      19.471795   18.658843   23.252409 C.3        1 MOL1        -0.1955
     131    H1      18.586463   19.289457   23.387629 H          1 MOL1         0.0733
     132    H2      19.144026   17.614067   23.268755 H          1 MOL1         0.0733
     133    C3      20.152913   18.967319   21.932717 C.2        1 MOL1        -0.1395
     134    H3      21.242176   18.983866   21.954451 H          1 MOL1         0.0816
     135    C4      19.501277   19.262195   20.804697 C.2        1 MOL1        -0.1394
     136    H4      18.412961   19.264025   20.779252 H          1 MOL1         0.0816
     137    C5      20.193544   19.631685   19.512031 C.3        1 MOL1        -0.1826
     138    H5      19.534252   20.250412   18.890749 H          1 MOL1         0.0736
     139    H6      21.074311   20.247970   19.730895 H          1 MOL1         0.0736
     140    C6      20.619440   18.379128   18.722558 C.3        1 MOL1        -0.2882
     141    H7      19.739603   17.802257   18.414042 H          1 MOL1         0.0749
     142    H8      21.176924   18.659230   17.819899 H          1 MOL1         0.0749
     143    H9      21.260518   17.731247   19.334736 H          1 MOL1         0.0749
@<TRIPOS>BOND
    1     1     2    1
    2     1     3    1
    3     1     4    1
    4     4     5    1
    5     4     6    1
    6     6     7    1
    7     4     8    1
    8     8     9    1
    9     8    10    1
   10    10    11    1
   11     8    12    1
   12    12    13    1
   13    12    14    1
   14    14    15    1
   15     1    16    1
   16    14    16    1
   17    14    17    1
   18    17    18    1
   19    17    19    1
   20    17    20    1
   21    20    21    1
   22    22    23    1
   23    22    24    1
   24    22    25    1
   25    25    26    1
   26    25    27    1
   27    27    28    1
   28    25    29    1
   29    29    30    1
   30    29    31    1
   31    31    32    1
   32     3    33    1
   33    29    33    1
   34    33    34    1
   35    33    35    1
   36    35    36    1
   37    22    37    1
   38    35    37    1
   39    35    38    1
   40    38    39    1
   41    38    40    1
   42    38    41    1
   43    41    42    1
   44    43    44    1
   45    43    45    1
   46    43    46    1
   47    46    47    1
   48    46    48    1
   49    48    49    1
   50    46    50    1
   51    50    51    1
   52    50    52    1
   53    52    53    1
   54    24    54    1
   55    50    54    1
   56    54    55    1
   57    54    56    1
   58    56    57    1
   59    43    58    1
   60    56    58    1
   61    56    59    1
   62    59    60    1
   63    59    61    1
   64    59    62    1
   65    62    63    1
   66    64    65    1
   67    64    66    1
   68    64    67    1
   69    67    68    1
   70    67    69    1
   71    69    70    1
   72    67    71    1
   73    71    72    1
   74    71    73    1
   75    73    74    1
   76    45    75    1
   77    71    75    1
   78    75    76    1
   79    75    77    1
   80    77    78    1
   81    64    79    1
   82    77    79    1
   83    77    80    1
   84    80    81    1
   85    80    82    1
   86    80    83    1
   87    83    84    1
   88    85    86    1
   89    85    87    1
   90    85    88    1
   91    88    89    1
   92    88    90    1
   93    90    91    1
   94    88    92    1
   95    92    93    1
   96    92    94    1
   97    94    95    1
   98    66    96    1
   99    92    96    1
  100    96    97    1
  101    96    98    1
  102    98    99    1
  103    85   100    1
  104    98   100    1
  105    98   101    1
  106   101   102    1
  107   101   103    1
  108   101   104    1
  109   104   105    1
  110   106   107    1
  111    12   108    1
  112   106   108    1
  113   106   109    1
  114   109   110    1
  115   109   111    1
  116   111   112    1
  117   109   113    1
  118   113   114    1
  119   113   115    1
  120   115   116    1
  121    87   117    1
  122   113   117    1
  123   117   118    1
  124   117   119    1
  125   119   120    1
  126   106   121    1
  127   119   121    1
  128   119   122    1
  129   122   123    1
  130   122   124    1
  131   122   125    1
  132   125   126    1
  133   127   128    1
  134   127   129    2
  135   127   130    1
  136   130   131    1
  137   130   132    1
  138   130   133    1
  139   133   134    1
  140   133   135    2
  141   135   136    1
  142   135   137    1
  143   137   138    1
  144   137   139    1
  145   137   140    1
  146   140   141    1
  147   140   142    1
  148   140   143    1
@<TRIPOS>SUBSTRUCTURE
       1 MOL1            1 RESIDUE      1      MOL     
       2 MOL1          143 RESIDUE      1      MOL     
@<SCITEGIC>MOL_PROPERTY
VM2 Rank
SciTegic.value.IntegerValue
8

@<SCITEGIC>MOL_PROPERTY
Conf_Id
SciTegic.value.IntegerValue
19395

@<SCITEGIC>MOL_PROPERTY
Probability
SciTegic.value.DoubleValue
0.79

@<SCITEGIC>MOL_PROPERTY
Sum Probability
SciTegic.value.DoubleValue
7.26

@<SCITEGIC>MOL_PROPERTY
Delta G
SciTegic.value.DoubleValue
0.177

@<SCITEGIC>MOL_PROPERTY
G
SciTegic.value.DoubleValue
490.471

@<SCITEGIC>MOL_PROPERTY
E
SciTegic.value.DoubleValue
305.826

@<SCITEGIC>MOL_PROPERTY
-TS
SciTegic.value.DoubleValue
184.645

@<SCITEGIC>MOL_PROPERTY
U+W
SciTegic.value.DoubleValue
179.738

@<SCITEGIC>MOL_PROPERTY
U
SciTegic.value.DoubleValue
241.383

@<SCITEGIC>MOL_PROPERTY
W
SciTegic.value.DoubleValue
-61.645

@<SCITEGIC>MOL_PROPERTY
W(PB)
SciTegic.value.DoubleValue
-67.690

@<SCITEGIC>MOL_PROPERTY
W(SA)
SciTegic.value.DoubleValue
6.045

@<SCITEGIC>MOL_PROPERTY
Valence
SciTegic.value.DoubleValue
160.181

@<SCITEGIC>MOL_PROPERTY
Coulomb
SciTegic.value.DoubleValue
101.803

@<SCITEGIC>MOL_PROPERTY
VdW
SciTegic.value.DoubleValue
-20.602

@<SCITEGIC>MOL_PROPERTY
VdW6
SciTegic.value.DoubleValue
-181.601

@<SCITEGIC>MOL_PROPERTY
VdW12
SciTegic.value.DoubleValue
160.999

@<SCITEGIC>MOL_PROPERTY
Bond
SciTegic.value.DoubleValue
5.041

@<SCITEGIC>MOL_PROPERTY
Angle
SciTegic.value.DoubleValue
12.063

@<SCITEGIC>MOL_PROPERTY
Pdih
SciTegic.value.DoubleValue
143.063

@<SCITEGIC>MOL_PROPERTY
Idih
SciTegic.value.DoubleValue
0.015

@<SCITEGIC>MOL_PROPERTY
Tether
SciTegic.value.DoubleValue
0.000

