@<TRIPOS>MOLECULE
CD_guest-8_vm2_single.mol2 : vm2 host+ligand conformer 1
         151         156           2
SMALL
USER_CHARGES
 
@<TRIPOS>ATOM
       1    C1      16.213723   15.052578   21.253581 C.3        1 MOL1         0.2972
       2    H1      15.130376   14.897385   21.175456 H          1 MOL1         0.0751
       3    O1      16.551836   16.453162   21.296889 O.3        1 MOL1        -0.3740
       4    C2      16.753282   14.366830   22.533671 C.3        1 MOL1         0.1003
       5    H2      16.538301   13.294034   22.444072 H          1 MOL1         0.0783
       6    O2      16.113042   14.876817   23.711191 O.3        1 MOL1        -0.5519
       7    H3      16.643032   14.514530   24.456575 H          1 MOL1         0.3769
       8    C3      18.285317   14.533766   22.650920 C.3        1 MOL1         0.1053
       9    H4      18.501689   15.593012   22.841095 H          1 MOL1         0.0783
      10    O3      18.768714   13.735416   23.738067 O.3        1 MOL1        -0.5519
      11    H5      19.756153   13.738318   23.676140 H          1 MOL1         0.3769
      12    C4      19.002679   14.115974   21.343641 C.3        1 MOL1         0.1018
      13    H6      19.020937   13.019315   21.292586 H          1 MOL1         0.0783
      14    C5      18.324094   14.688183   20.068119 C.3        1 MOL1         0.1043
      15    H7      18.530480   15.765413   20.019471 H          1 MOL1         0.0783
      16    O4      16.892774   14.464147   20.124349 O.3        1 MOL1        -0.3740
      17    C6      18.844130   14.050344   18.760929 C.3        1 MOL1         0.0138
      18    H8      19.913924   14.271163   18.652710 H          1 MOL1         0.0794
      19    H9      18.326895   14.516185   17.911516 H          1 MOL1         0.0794
      20    O5      18.628214   12.636006   18.757482 O.3        1 MOL1        -0.5486
      21    H10     17.664805   12.507012   18.905025 H          1 MOL1         0.3769
      22    C7      14.924639   20.262312   20.878348 C.3        1 MOL1         0.2972
      23    H11     14.274796   21.114535   20.641268 H          1 MOL1         0.0751
      24    O6      16.234327   20.695991   21.291039 O.3        1 MOL1        -0.3740
      25    C8      14.303810   19.393238   22.004462 C.3        1 MOL1         0.1003
      26    H12     13.322946   19.051991   21.648714 H          1 MOL1         0.0783
      27    O7      14.131216   20.141065   23.215660 O.3        1 MOL1        -0.5519
      28    H13     13.842428   19.475321   23.879836 H          1 MOL1         0.3769
      29    C9      15.167794   18.141360   22.287479 C.3        1 MOL1         0.1053
      30    H14     16.116574   18.472536   22.732478 H          1 MOL1         0.0783
      31    O8      14.474432   17.281630   23.200268 O.3        1 MOL1        -0.5519
      32    H15     15.077989   16.519044   23.385115 H          1 MOL1         0.3769
      33    C10     15.489965   17.372905   20.982167 C.3        1 MOL1         0.1018
      34    H16     14.585913   16.857600   20.631715 H          1 MOL1         0.0783
      35    C11     16.000646   18.313234   19.859351 C.3        1 MOL1         0.1043
      36    H17     16.997460   18.678052   20.135599 H          1 MOL1         0.0783
      37    O9      15.088356   19.429450   19.711143 O.3        1 MOL1        -0.3740
      38    C12     16.113194   17.615677   18.485889 C.3        1 MOL1         0.0138
      39    H18     16.811802   16.773095   18.565706 H          1 MOL1         0.0794
      40    H19     16.537117   18.326411   17.763889 H          1 MOL1         0.0794
      41    O10     14.834799   17.155448   18.038049 O.3        1 MOL1        -0.5486
      42    H20     14.239349   17.936972   18.069686 H          1 MOL1         0.3769
      43    C13     18.504259   24.085434   21.858557 C.3        1 MOL1         0.2972
      44    H21     18.911945   25.087238   22.044362 H          1 MOL1         0.0751
      45    O11     19.517602   23.170510   21.399149 O.3        1 MOL1        -0.3740
      46    C14     17.871320   23.515089   23.150391 C.3        1 MOL1         0.1003
      47    H22     17.039257   24.175170   23.428001 H          1 MOL1         0.0783
      48    O12     18.818787   23.476048   24.226430 O.3        1 MOL1        -0.5519
      49    H23     18.390642   22.913900   24.910790 H          1 MOL1         0.3769
      50    C15     17.293771   22.104376   22.896045 C.3        1 MOL1         0.1053
      51    H24     18.130601   21.422086   22.696405 H          1 MOL1         0.0783
      52    O13     16.568527   21.673798   24.053650 O.3        1 MOL1        -0.5519
      53    H25     15.924341   20.992318   23.744088 H          1 MOL1         0.3769
      54    C16     16.357280   22.081483   21.663269 C.3        1 MOL1         0.1018
      55    H26     15.390279   22.514510   21.953062 H          1 MOL1         0.0783
      56    C17     16.942633   22.845878   20.440259 C.3        1 MOL1         0.1043
      57    H27     17.752177   22.238516   20.014147 H          1 MOL1         0.0783
      58    O14     17.465811   24.132936   20.857092 O.3        1 MOL1        -0.3740
      59    C18     15.914821   23.101584   19.315433 C.3        1 MOL1         0.0138
      60    H28     15.603137   22.139690   18.887619 H          1 MOL1         0.0794
      61    H29     16.404746   23.669892   18.513397 H          1 MOL1         0.0794
      62    O15     14.777098   23.816529   19.806236 O.3        1 MOL1        -0.5486
      63    H30     15.122482   24.652969   20.190386 H          1 MOL1         0.3769
      64    C19     23.537998   22.779170   20.671122 C.3        1 MOL1         0.2972
      65    H31     24.590322   22.858894   20.369457 H          1 MOL1         0.0751
      66    O16     23.196722   21.425650   21.042829 O.3        1 MOL1        -0.3740
      67    C20     23.214653   23.750821   21.838649 C.3        1 MOL1         0.1003
      68    H32     23.354759   24.770892   21.458835 H          1 MOL1         0.0783
      69    O17     24.109552   23.547784   22.942416 O.3        1 MOL1        -0.5519
      70    H33     23.878490   22.671178   23.338631 H          1 MOL1         0.3769
      71    C21     21.727342   23.604038   22.259250 C.3        1 MOL1         0.1053
      72    H34     21.592711   22.597957   22.680193 H          1 MOL1         0.0783
      73    O18     21.374885   24.585719   23.241523 O.3        1 MOL1        -0.5519
      74    H35     20.542513   24.261450   23.665362 H          1 MOL1         0.3769
      75    C22     20.783524   23.746241   21.032703 C.3        1 MOL1         0.1018
      76    H36     20.686600   24.805455   20.759584 H          1 MOL1         0.0783
      77    C23     21.265760   22.950324   19.791631 C.3        1 MOL1         0.1043
      78    H37     21.065792   21.890062   19.979296 H          1 MOL1         0.0783
      79    O19     22.683710   23.153622   19.572102 O.3        1 MOL1        -0.3740
      80    C24     20.525851   23.341896   18.493860 C.3        1 MOL1         0.0138
      81    H38     19.449287   23.176436   18.630045 H          1 MOL1         0.0794
      82    H39     20.860936   22.679370   17.684518 H          1 MOL1         0.0794
      83    O20     20.775904   24.708576   18.153002 O.3        1 MOL1        -0.5486
      84    H40     21.753788   24.807176   18.129257 H          1 MOL1         0.3769
      85    C25     24.824336   17.783853   22.155558 C.3        1 MOL1         0.2972
      86    H41     25.469737   16.962165   22.490883 H          1 MOL1         0.0751
      87    O21     23.583617   17.292015   21.607522 O.3        1 MOL1        -0.3740
      88    C26     24.510572   18.732076   23.342178 C.3        1 MOL1         0.1003
      89    H42     25.467341   19.129808   23.704350 H          1 MOL1         0.0783
      90    O22     23.879011   17.995201   24.403624 O.3        1 MOL1        -0.5519
      91    H43     23.299162   18.618497   24.913670 H          1 MOL1         0.3769
      92    C27     23.647759   19.935399   22.880083 C.3        1 MOL1         0.1053
      93    H44     22.647318   19.561771   22.629455 H          1 MOL1         0.0783
      94    O23     23.564880   20.906141   23.931321 O.3        1 MOL1        -0.5519
      95    H45     22.982666   20.520173   24.635810 H          1 MOL1         0.3769
      96    C28     24.242452   20.618568   21.619430 C.3        1 MOL1         0.1018
      97    H46     25.104641   21.226054   21.924922 H          1 MOL1         0.0783
      98    C29     24.680343   19.600994   20.531136 C.3        1 MOL1         0.1043
      99    H47     23.776632   19.166607   20.083520 H          1 MOL1         0.0783
     100    O24     25.484523   18.556199   21.131000 O.3        1 MOL1        -0.3740
     101    C30     25.504950   20.234835   19.388819 C.3        1 MOL1         0.0138
     102    H48     24.873904   20.952496   18.847826 H          1 MOL1         0.0794
     103    H49     25.785473   19.446376   18.677586 H          1 MOL1         0.0794
     104    O25     26.673818   20.887366   19.893349 O.3        1 MOL1        -0.5486
     105    H50     27.173461   20.205615   20.395389 H          1 MOL1         0.3769
     106    C31     21.422681   13.781319   21.159595 C.3        1 MOL1         0.2972
     107    H51     21.078082   12.760211   20.953277 H          1 MOL1         0.0751
     108    O26     20.324885   14.678639   21.419559 O.3        1 MOL1        -0.3740
     109    C32     22.364015   13.798242   22.389524 C.3        1 MOL1         0.1003
     110    H52     23.229274   13.166037   22.151314 H          1 MOL1         0.0783
     111    O27     21.708434   13.283016   23.556605 O.3        1 MOL1        -0.5519
     112    H53     22.328852   13.479991   24.294306 H          1 MOL1         0.3769
     113    C33     22.880091   15.229459   22.668131 C.3        1 MOL1         0.1053
     114    H54     22.023604   15.842352   22.980095 H          1 MOL1         0.0783
     115    O28     23.848629   15.181080   23.722340 O.3        1 MOL1        -0.5519
     116    H55     23.923996   16.107889   24.061918 H          1 MOL1         0.3769
     117    C34     23.491559   15.870278   21.391875 C.3        1 MOL1         0.1018
     118    H56     24.477205   15.429658   21.191572 H          1 MOL1         0.0783
     119    C35     22.591439   15.674631   20.140604 C.3        1 MOL1         0.1043
     120    H57     21.710522   16.322588   20.236460 H          1 MOL1         0.0783
     121    O29     22.169742   14.292360   20.036588 O.3        1 MOL1        -0.3740
     122    C36     23.310855   16.041783   18.823724 C.3        1 MOL1         0.0138
     123    H58     23.646888   17.085568   18.876182 H          1 MOL1         0.0794
     124    H59     22.592093   15.967295   17.996787 H          1 MOL1         0.0794
     125    O30     24.426620   15.177509   18.590143 O.3        1 MOL1        -0.5486
     126    H60     24.076647   14.261090   18.656249 H          1 MOL1         0.3769
     127    C1      20.672081   19.528272   25.585253 C.2        1 MOL1         0.6168
     128    O1      19.943697   19.380446   26.546526 O.co2      1 MOL1        -0.6703
     129    O2      21.887436   19.544878   25.651088 O.co2      1 MOL1        -0.6703
     130    C2      20.032022   19.683997   24.209746 C.3        1 MOL1        -0.1963
     131    H1      20.623494   20.407203   23.638455 H          1 MOL1         0.0750
     132    H2      19.037538   20.120388   24.352504 H          1 MOL1         0.0750
     133    C3      19.912957   18.338378   23.449653 C.3        1 MOL1        -0.1860
     134    H3      20.895115   17.849232   23.405672 H          1 MOL1         0.0752
     135    H4      19.260824   17.670832   24.029105 H          1 MOL1         0.0752
     136    C4      19.338522   18.487110   22.021804 C.3        1 MOL1        -0.1858
     137    H5      18.441242   19.118352   22.042370 H          1 MOL1         0.0752
     138    H6      19.017670   17.497794   21.675593 H          1 MOL1         0.0752
     139    C5      20.364099   19.045109   21.011064 C.3        1 MOL1        -0.1858
     140    H7      20.677632   20.053217   21.308845 H          1 MOL1         0.0752
     141    H8      21.260595   18.415569   21.031906 H          1 MOL1         0.0752
     142    C6      19.796483   19.082661   19.575944 C.3        1 MOL1        -0.1858
     143    H9      19.052132   19.887271   19.503988 H          1 MOL1         0.0752
     144    H10     19.274087   18.141402   19.360240 H          1 MOL1         0.0752
     145    C7      20.902045   19.284394   18.518216 C.3        1 MOL1        -0.1834
     146    H11     21.511361   20.162879   18.760828 H          1 MOL1         0.0752
     147    H12     21.581160   18.423010   18.532171 H          1 MOL1         0.0752
     148    C8      20.308191   19.443490   17.105146 C.3        1 MOL1        -0.2849
     149    H13     19.644758   20.316458   17.054373 H          1 MOL1         0.0764
     150    H14     21.105846   19.579667   16.363656 H          1 MOL1         0.0764
     151    H15     19.728512   18.555549   16.821430 H          1 MOL1         0.0764
@<TRIPOS>BOND
    1     1     2    1
    2     1     3    1
    3     1     4    1
    4     4     5    1
    5     4     6    1
    6     6     7    1
    7     4     8    1
    8     8     9    1
    9     8    10    1
   10    10    11    1
   11     8    12    1
   12    12    13    1
   13    12    14    1
   14    14    15    1
   15     1    16    1
   16    14    16    1
   17    14    17    1
   18    17    18    1
   19    17    19    1
   20    17    20    1
   21    20    21    1
   22    22    23    1
   23    22    24    1
   24    22    25    1
   25    25    26    1
   26    25    27    1
   27    27    28    1
   28    25    29    1
   29    29    30    1
   30    29    31    1
   31    31    32    1
   32     3    33    1
   33    29    33    1
   34    33    34    1
   35    33    35    1
   36    35    36    1
   37    22    37    1
   38    35    37    1
   39    35    38    1
   40    38    39    1
   41    38    40    1
   42    38    41    1
   43    41    42    1
   44    43    44    1
   45    43    45    1
   46    43    46    1
   47    46    47    1
   48    46    48    1
   49    48    49    1
   50    46    50    1
   51    50    51    1
   52    50    52    1
   53    52    53    1
   54    24    54    1
   55    50    54    1
   56    54    55    1
   57    54    56    1
   58    56    57    1
   59    43    58    1
   60    56    58    1
   61    56    59    1
   62    59    60    1
   63    59    61    1
   64    59    62    1
   65    62    63    1
   66    64    65    1
   67    64    66    1
   68    64    67    1
   69    67    68    1
   70    67    69    1
   71    69    70    1
   72    67    71    1
   73    71    72    1
   74    71    73    1
   75    73    74    1
   76    45    75    1
   77    71    75    1
   78    75    76    1
   79    75    77    1
   80    77    78    1
   81    64    79    1
   82    77    79    1
   83    77    80    1
   84    80    81    1
   85    80    82    1
   86    80    83    1
   87    83    84    1
   88    85    86    1
   89    85    87    1
   90    85    88    1
   91    88    89    1
   92    88    90    1
   93    90    91    1
   94    88    92    1
   95    92    93    1
   96    92    94    1
   97    94    95    1
   98    66    96    1
   99    92    96    1
  100    96    97    1
  101    96    98    1
  102    98    99    1
  103    85   100    1
  104    98   100    1
  105    98   101    1
  106   101   102    1
  107   101   103    1
  108   101   104    1
  109   104   105    1
  110   106   107    1
  111    12   108    1
  112   106   108    1
  113   106   109    1
  114   109   110    1
  115   109   111    1
  116   111   112    1
  117   109   113    1
  118   113   114    1
  119   113   115    1
  120   115   116    1
  121    87   117    1
  122   113   117    1
  123   117   118    1
  124   117   119    1
  125   119   120    1
  126   106   121    1
  127   119   121    1
  128   119   122    1
  129   122   123    1
  130   122   124    1
  131   122   125    1
  132   125   126    1
  133   127   128    1
  134   127   129    2
  135   127   130    1
  136   130   131    1
  137   130   132    1
  138   130   133    1
  139   133   134    1
  140   133   135    1
  141   133   136    1
  142   136   137    1
  143   136   138    1
  144   136   139    1
  145   139   140    1
  146   139   141    1
  147   139   142    1
  148   142   143    1
  149   142   144    1
  150   142   145    1
  151   145   146    1
  152   145   147    1
  153   145   148    1
  154   148   149    1
  155   148   150    1
  156   148   151    1
@<TRIPOS>SUBSTRUCTURE
       1 MOL1            1 RESIDUE      1      MOL     
       2 MOL1          151 RESIDUE      1      MOL     
@<SCITEGIC>MOL_PROPERTY
VM2 Rank
SciTegic.value.IntegerValue
1

@<SCITEGIC>MOL_PROPERTY
Conf_Id
SciTegic.value.IntegerValue
25985

@<SCITEGIC>MOL_PROPERTY
Probability
SciTegic.value.DoubleValue
6.14

@<SCITEGIC>MOL_PROPERTY
Sum Probability
SciTegic.value.DoubleValue
6.14

@<SCITEGIC>MOL_PROPERTY
Delta G
SciTegic.value.DoubleValue
0.000

@<SCITEGIC>MOL_PROPERTY
G
SciTegic.value.DoubleValue
504.823

@<SCITEGIC>MOL_PROPERTY
E
SciTegic.value.DoubleValue
307.722

@<SCITEGIC>MOL_PROPERTY
-TS
SciTegic.value.DoubleValue
197.101

@<SCITEGIC>MOL_PROPERTY
U+W
SciTegic.value.DoubleValue
174.480

@<SCITEGIC>MOL_PROPERTY
U
SciTegic.value.DoubleValue
246.223

@<SCITEGIC>MOL_PROPERTY
W
SciTegic.value.DoubleValue
-71.744

@<SCITEGIC>MOL_PROPERTY
W(PB)
SciTegic.value.DoubleValue
-77.963

@<SCITEGIC>MOL_PROPERTY
W(SA)
SciTegic.value.DoubleValue
6.220

@<SCITEGIC>MOL_PROPERTY
Valence
SciTegic.value.DoubleValue
151.046

@<SCITEGIC>MOL_PROPERTY
Coulomb
SciTegic.value.DoubleValue
122.202

@<SCITEGIC>MOL_PROPERTY
VdW
SciTegic.value.DoubleValue
-27.025

@<SCITEGIC>MOL_PROPERTY
VdW6
SciTegic.value.DoubleValue
-184.876

@<SCITEGIC>MOL_PROPERTY
VdW12
SciTegic.value.DoubleValue
157.851

@<SCITEGIC>MOL_PROPERTY
Bond
SciTegic.value.DoubleValue
4.477

@<SCITEGIC>MOL_PROPERTY
Angle
SciTegic.value.DoubleValue
11.484

@<SCITEGIC>MOL_PROPERTY
Pdih
SciTegic.value.DoubleValue
135.084

@<SCITEGIC>MOL_PROPERTY
Idih
SciTegic.value.DoubleValue
0.001

@<SCITEGIC>MOL_PROPERTY
Tether
SciTegic.value.DoubleValue
0.000

@<TRIPOS>MOLECULE
CD_guest-8_vm2_single.mol2 : vm2 host+ligand conformer 2
         151         156           2
SMALL
USER_CHARGES
 
@<TRIPOS>ATOM
       1    C1      16.214176   15.058890   21.229380 C.3        1 MOL1         0.2972
       2    H1      15.131766   14.902712   21.141071 H          1 MOL1         0.0751
       3    O1      16.549054   16.459264   21.296137 O.3        1 MOL1        -0.3740
       4    C2      16.745916   14.355563   22.503299 C.3        1 MOL1         0.1003
       5    H2      16.532541   13.283964   22.397080 H          1 MOL1         0.0783
       6    O2      16.097456   14.848203   23.683697 O.3        1 MOL1        -0.5519
       7    H3      16.622363   14.475047   24.427325 H          1 MOL1         0.3769
       8    C3      18.277010   14.522054   22.633380 C.3        1 MOL1         0.1053
       9    H4      18.491582   15.578892   22.839128 H          1 MOL1         0.0783
      10    O3      18.753410   13.709327   23.712964 O.3        1 MOL1        -0.5519
      11    H5      19.741499   13.719600   23.662481 H          1 MOL1         0.3769
      12    C4      19.002895   14.122084   21.325294 C.3        1 MOL1         0.1018
      13    H6      19.018650   13.026315   21.257372 H          1 MOL1         0.0783
      14    C5      18.333898   14.714900   20.054279 C.3        1 MOL1         0.1043
      15    H7      18.539780   15.792862   20.024803 H          1 MOL1         0.0783
      16    O4      16.902428   14.488760   20.096300 O.3        1 MOL1        -0.3740
      17    C6      18.864129   14.098583   18.740900 C.3        1 MOL1         0.0138
      18    H8      19.935042   14.319763   18.645359 H          1 MOL1         0.0794
      19    H9      18.354541   14.579347   17.895197 H          1 MOL1         0.0794
      20    O5      18.646506   12.684800   18.711851 O.3        1 MOL1        -0.5486
      21    H10     17.681958   12.554701   18.850701 H          1 MOL1         0.3769
      22    C7      14.919779   20.271398   20.910008 C.3        1 MOL1         0.2972
      23    H11     14.267622   21.123917   20.681603 H          1 MOL1         0.0751
      24    O6      16.229111   20.703591   21.323932 O.3        1 MOL1        -0.3740
      25    C8      14.303994   19.394412   22.032630 C.3        1 MOL1         0.1003
      26    H12     13.321071   19.056442   21.679491 H          1 MOL1         0.0783
      27    O7      14.138725   20.133857   23.250198 O.3        1 MOL1        -0.5519
      28    H13     13.856013   19.463131   23.911903 H          1 MOL1         0.3769
      29    C9      15.168599   18.140164   22.302810 C.3        1 MOL1         0.1053
      30    H14     16.118717   18.467624   22.747717 H          1 MOL1         0.0783
      31    O8      14.477593   17.273222   23.210572 O.3        1 MOL1        -0.5519
      32    H15     15.078353   16.505283   23.381873 H          1 MOL1         0.3769
      33    C10     15.486993   17.381953   20.990713 C.3        1 MOL1         0.1018
      34    H16     14.581580   16.870011   20.638882 H          1 MOL1         0.0783
      35    C11     15.995272   18.331059   19.874229 C.3        1 MOL1         0.1043
      36    H17     16.992170   18.694738   20.151713 H          1 MOL1         0.0783
      37    O9      15.081676   19.447404   19.736152 O.3        1 MOL1        -0.3740
      38    C12     16.106140   17.644284   18.495221 C.3        1 MOL1         0.0138
      39    H18     16.806265   16.802238   18.567070 H          1 MOL1         0.0794
      40    H19     16.527498   18.361222   17.777878 H          1 MOL1         0.0794
      41    O10     14.827506   17.185620   18.046468 O.3        1 MOL1        -0.5486
      42    H20     14.230880   17.965885   18.085882 H          1 MOL1         0.3769
      43    C13     18.508446   24.093609   21.846579 C.3        1 MOL1         0.2972
      44    H21     18.917419   25.097065   22.020101 H          1 MOL1         0.0751
      45    O11     19.522060   23.170778   21.403468 O.3        1 MOL1        -0.3740
      46    C14     17.870516   23.543090   23.144460 C.3        1 MOL1         0.1003
      47    H22     17.038264   24.208076   23.409673 H          1 MOL1         0.0783
      48    O12     18.815158   23.517841   24.223574 O.3        1 MOL1        -0.5519
      49    H23     18.384501   22.965414   24.914261 H          1 MOL1         0.3769
      50    C15     17.292536   22.129777   22.907974 C.3        1 MOL1         0.1053
      51    H24     18.128835   21.444865   22.715322 H          1 MOL1         0.0783
      52    O13     16.567703   21.711430   24.070592 O.3        1 MOL1        -0.5519
      53    H25     15.928836   21.021259   23.769111 H          1 MOL1         0.3769
      54    C16     16.355472   22.094089   21.676569 C.3        1 MOL1         0.1018
      55    H26     15.390807   22.534547   21.962835 H          1 MOL1         0.0783
      56    C17     16.941211   22.841005   20.443054 C.3        1 MOL1         0.1043
      57    H27     17.751936   22.226046   20.030721 H          1 MOL1         0.0783
      58    O14     17.475131   24.130016   20.840419 O.3        1 MOL1        -0.3740
      59    C18     15.919269   23.069412   19.303537 C.3        1 MOL1         0.0138
      60    H28     15.714076   22.104838   18.819936 H          1 MOL1         0.0794
      61    H29     16.379427   23.720032   18.547747 H          1 MOL1         0.0794
      62    O15     14.696284   23.646059   19.779185 O.3        1 MOL1        -0.5486
      63    H30     14.134035   23.838688   18.997374 H          1 MOL1         0.3769
      64    C19     23.539387   22.770256   20.661344 C.3        1 MOL1         0.2972
      65    H31     24.590631   22.848203   20.355501 H          1 MOL1         0.0751
      66    O16     23.199010   21.418570   21.040056 O.3        1 MOL1        -0.3740
      67    C20     23.220904   23.747147   21.825949 C.3        1 MOL1         0.1003
      68    H32     23.361402   24.765452   21.441573 H          1 MOL1         0.0783
      69    O17     24.118596   23.547187   22.928040 O.3        1 MOL1        -0.5519
      70    H33     23.886578   22.672998   23.329036 H          1 MOL1         0.3769
      71    C21     21.734772   23.604368   22.251873 C.3        1 MOL1         0.1053
      72    H34     21.600164   22.600582   22.678262 H          1 MOL1         0.0783
      73    O18     21.386217   24.591564   23.230068 O.3        1 MOL1        -0.5519
      74    H35     20.549914   24.275269   23.652233 H          1 MOL1         0.3769
      75    C22     20.787367   23.741656   21.027796 C.3        1 MOL1         0.1018
      76    H36     20.691866   24.799604   20.749279 H          1 MOL1         0.0783
      77    C23     21.263851   22.938335   19.789386 C.3        1 MOL1         0.1043
      78    H37     21.063606   21.879222   19.983349 H          1 MOL1         0.0783
      79    O19     22.681169   23.139671   19.563640 O.3        1 MOL1        -0.3740
      80    C24     20.519527   23.323991   18.492378 C.3        1 MOL1         0.0138
      81    H38     19.443087   23.162198   18.634010 H          1 MOL1         0.0794
      82    H39     20.849613   22.655789   17.685661 H          1 MOL1         0.0794
      83    O20     20.771777   24.687945   18.142322 O.3        1 MOL1        -0.5486
      84    H40     21.749832   24.783987   18.115055 H          1 MOL1         0.3769
      85    C25     24.826937   17.781577   22.163904 C.3        1 MOL1         0.2972
      86    H41     25.471455   16.960265   22.501855 H          1 MOL1         0.0751
      87    O21     23.586210   17.289380   21.616240 O.3        1 MOL1        -0.3740
      88    C26     24.513213   18.733147   23.347838 C.3        1 MOL1         0.1003
      89    H42     25.470029   19.131262   23.709467 H          1 MOL1         0.0783
      90    O22     23.880435   17.999520   24.410818 O.3        1 MOL1        -0.5519
      91    H43     23.303082   18.625221   24.920751 H          1 MOL1         0.3769
      92    C27     23.651268   19.935621   22.882135 C.3        1 MOL1         0.1053
      93    H44     22.650481   19.561719   22.633255 H          1 MOL1         0.0783
      94    O23     23.569477   20.910007   23.930143 O.3        1 MOL1        -0.5519
      95    H45     22.988189   20.526462   24.636709 H          1 MOL1         0.3769
      96    C28     24.245674   20.614494   21.619025 C.3        1 MOL1         0.1018
      97    H46     25.107347   21.223761   21.922378 H          1 MOL1         0.0783
      98    C29     24.684503   19.593744   20.534078 C.3        1 MOL1         0.1043
      99    H47     23.781132   19.158090   20.087020 H          1 MOL1         0.0783
     100    O24     25.488195   18.550742   21.137691 O.3        1 MOL1        -0.3740
     101    C30     25.509966   20.224036   19.390417 C.3        1 MOL1         0.0138
     102    H48     24.879213   20.939706   18.846468 H          1 MOL1         0.0794
     103    H49     25.791317   19.433295   18.682049 H          1 MOL1         0.0794
     104    O25     26.678229   20.878534   19.893778 O.3        1 MOL1        -0.5486
     105    H50     27.177590   20.198616   20.398575 H          1 MOL1         0.3769
     106    C31     21.423748   13.780652   21.166214 C.3        1 MOL1         0.2972
     107    H51     21.078903   12.759334   20.961467 H          1 MOL1         0.0751
     108    O26     20.325923   14.680173   21.418760 O.3        1 MOL1        -0.3740
     109    C32     22.359511   13.799365   22.400330 C.3        1 MOL1         0.1003
     110    H52     23.225127   13.165656   22.167468 H          1 MOL1         0.0783
     111    O27     21.698122   13.287414   23.565559 O.3        1 MOL1        -0.5519
     112    H53     22.314795   13.486638   24.305796 H          1 MOL1         0.3769
     113    C33     22.875986   15.230568   22.677904 C.3        1 MOL1         0.1053
     114    H54     22.018870   15.845338   22.984499 H          1 MOL1         0.0783
     115    O28     23.839871   15.183644   23.736440 O.3        1 MOL1        -0.5519
     116    H55     23.916860   16.111599   24.072529 H          1 MOL1         0.3769
     117    C34     23.494000   15.867403   21.402911 C.3        1 MOL1         0.1018
     118    H56     24.480149   15.425323   21.208371 H          1 MOL1         0.0783
     119    C35     22.599681   15.669650   20.147801 C.3        1 MOL1         0.1043
     120    H57     21.719113   16.318881   20.237775 H          1 MOL1         0.0783
     121    O29     22.176780   14.287629   20.045364 O.3        1 MOL1        -0.3740
     122    C36     23.325686   16.032597   18.833372 C.3        1 MOL1         0.0138
     123    H58     23.662123   17.076319   18.884454 H          1 MOL1         0.0794
     124    H59     22.610868   15.956226   18.003194 H          1 MOL1         0.0794
     125    O30     24.441955   15.166914   18.607596 O.3        1 MOL1        -0.5486
     126    H60     24.090995   14.250909   18.674257 H          1 MOL1         0.3769
     127    C1      20.678509   19.541670   25.595474 C.2        1 MOL1         0.6168
     128    O1      19.952094   19.396665   26.558666 O.co2      1 MOL1        -0.6703
     129    O2      21.894056   19.556279   25.658410 O.co2      1 MOL1        -0.6703
     130    C2      20.035571   19.695835   24.221154 C.3        1 MOL1        -0.1963
     131    H1      20.630466   20.412376   23.645057 H          1 MOL1         0.0750
     132    H2      19.044532   20.139908   24.364539 H          1 MOL1         0.0750
     133    C3      19.905324   18.347716   23.467308 C.3        1 MOL1        -0.1860
     134    H3      20.883544   17.850503   23.425094 H          1 MOL1         0.0752
     135    H4      19.248051   17.687826   24.049765 H          1 MOL1         0.0752
     136    C4      19.331658   18.494927   22.039073 C.3        1 MOL1        -0.1858
     137    H5      18.440352   19.134700   22.056918 H          1 MOL1         0.0752
     138    H6      19.001571   17.506933   21.697937 H          1 MOL1         0.0752
     139    C5      20.362191   19.038692   21.025649 C.3        1 MOL1        -0.1858
     140    H7      20.684792   20.045292   21.318725 H          1 MOL1         0.0752
     141    H8      21.252909   18.401070   21.049593 H          1 MOL1         0.0752
     142    C6      19.795106   19.075019   19.590335 C.3        1 MOL1        -0.1858
     143    H9      19.055548   19.883770   19.515565 H          1 MOL1         0.0752
     144    H10     19.267291   18.136202   19.377502 H          1 MOL1         0.0752
     145    C7      20.902220   19.267275   18.532514 C.3        1 MOL1        -0.1834
     146    H11     21.514470   20.144838   18.771361 H          1 MOL1         0.0752
     147    H12     21.578159   18.403476   18.551281 H          1 MOL1         0.0752
     148    C8      20.309977   19.421458   17.118222 C.3        1 MOL1        -0.2849
     149    H13     19.649497   20.296364   17.062648 H          1 MOL1         0.0764
     150    H14     21.108663   19.551343   16.376711 H          1 MOL1         0.0764
     151    H15     19.727563   18.534075   16.838385 H          1 MOL1         0.0764
@<TRIPOS>BOND
    1     1     2    1
    2     1     3    1
    3     1     4    1
    4     4     5    1
    5     4     6    1
    6     6     7    1
    7     4     8    1
    8     8     9    1
    9     8    10    1
   10    10    11    1
   11     8    12    1
   12    12    13    1
   13    12    14    1
   14    14    15    1
   15     1    16    1
   16    14    16    1
   17    14    17    1
   18    17    18    1
   19    17    19    1
   20    17    20    1
   21    20    21    1
   22    22    23    1
   23    22    24    1
   24    22    25    1
   25    25    26    1
   26    25    27    1
   27    27    28    1
   28    25    29    1
   29    29    30    1
   30    29    31    1
   31    31    32    1
   32     3    33    1
   33    29    33    1
   34    33    34    1
   35    33    35    1
   36    35    36    1
   37    22    37    1
   38    35    37    1
   39    35    38    1
   40    38    39    1
   41    38    40    1
   42    38    41    1
   43    41    42    1
   44    43    44    1
   45    43    45    1
   46    43    46    1
   47    46    47    1
   48    46    48    1
   49    48    49    1
   50    46    50    1
   51    50    51    1
   52    50    52    1
   53    52    53    1
   54    24    54    1
   55    50    54    1
   56    54    55    1
   57    54    56    1
   58    56    57    1
   59    43    58    1
   60    56    58    1
   61    56    59    1
   62    59    60    1
   63    59    61    1
   64    59    62    1
   65    62    63    1
   66    64    65    1
   67    64    66    1
   68    64    67    1
   69    67    68    1
   70    67    69    1
   71    69    70    1
   72    67    71    1
   73    71    72    1
   74    71    73    1
   75    73    74    1
   76    45    75    1
   77    71    75    1
   78    75    76    1
   79    75    77    1
   80    77    78    1
   81    64    79    1
   82    77    79    1
   83    77    80    1
   84    80    81    1
   85    80    82    1
   86    80    83    1
   87    83    84    1
   88    85    86    1
   89    85    87    1
   90    85    88    1
   91    88    89    1
   92    88    90    1
   93    90    91    1
   94    88    92    1
   95    92    93    1
   96    92    94    1
   97    94    95    1
   98    66    96    1
   99    92    96    1
  100    96    97    1
  101    96    98    1
  102    98    99    1
  103    85   100    1
  104    98   100    1
  105    98   101    1
  106   101   102    1
  107   101   103    1
  108   101   104    1
  109   104   105    1
  110   106   107    1
  111    12   108    1
  112   106   108    1
  113   106   109    1
  114   109   110    1
  115   109   111    1
  116   111   112    1
  117   109   113    1
  118   113   114    1
  119   113   115    1
  120   115   116    1
  121    87   117    1
  122   113   117    1
  123   117   118    1
  124   117   119    1
  125   119   120    1
  126   106   121    1
  127   119   121    1
  128   119   122    1
  129   122   123    1
  130   122   124    1
  131   122   125    1
  132   125   126    1
  133   127   128    1
  134   127   129    2
  135   127   130    1
  136   130   131    1
  137   130   132    1
  138   130   133    1
  139   133   134    1
  140   133   135    1
  141   133   136    1
  142   136   137    1
  143   136   138    1
  144   136   139    1
  145   139   140    1
  146   139   141    1
  147   139   142    1
  148   142   143    1
  149   142   144    1
  150   142   145    1
  151   145   146    1
  152   145   147    1
  153   145   148    1
  154   148   149    1
  155   148   150    1
  156   148   151    1
@<TRIPOS>SUBSTRUCTURE
       1 MOL1            1 RESIDUE      1      MOL     
       2 MOL1          151 RESIDUE      1      MOL     
@<SCITEGIC>MOL_PROPERTY
VM2 Rank
SciTegic.value.IntegerValue
2

@<SCITEGIC>MOL_PROPERTY
Conf_Id
SciTegic.value.IntegerValue
25170

@<SCITEGIC>MOL_PROPERTY
Probability
SciTegic.value.DoubleValue
3.26

@<SCITEGIC>MOL_PROPERTY
Sum Probability
SciTegic.value.DoubleValue
9.40

@<SCITEGIC>MOL_PROPERTY
Delta G
SciTegic.value.DoubleValue
0.378

@<SCITEGIC>MOL_PROPERTY
G
SciTegic.value.DoubleValue
505.201

@<SCITEGIC>MOL_PROPERTY
E
SciTegic.value.DoubleValue
308.270

@<SCITEGIC>MOL_PROPERTY
-TS
SciTegic.value.DoubleValue
196.931

@<SCITEGIC>MOL_PROPERTY
U+W
SciTegic.value.DoubleValue
175.028

@<SCITEGIC>MOL_PROPERTY
U
SciTegic.value.DoubleValue
249.586

@<SCITEGIC>MOL_PROPERTY
W
SciTegic.value.DoubleValue
-74.558

@<SCITEGIC>MOL_PROPERTY
W(PB)
SciTegic.value.DoubleValue
-80.785

@<SCITEGIC>MOL_PROPERTY
W(SA)
SciTegic.value.DoubleValue
6.227

@<SCITEGIC>MOL_PROPERTY
Valence
SciTegic.value.DoubleValue
150.817

@<SCITEGIC>MOL_PROPERTY
Coulomb
SciTegic.value.DoubleValue
125.794

@<SCITEGIC>MOL_PROPERTY
VdW
SciTegic.value.DoubleValue
-27.024

@<SCITEGIC>MOL_PROPERTY
VdW6
SciTegic.value.DoubleValue
-184.704

@<SCITEGIC>MOL_PROPERTY
VdW12
SciTegic.value.DoubleValue
157.680

@<SCITEGIC>MOL_PROPERTY
Bond
SciTegic.value.DoubleValue
4.487

@<SCITEGIC>MOL_PROPERTY
Angle
SciTegic.value.DoubleValue
11.596

@<SCITEGIC>MOL_PROPERTY
Pdih
SciTegic.value.DoubleValue
134.733

@<SCITEGIC>MOL_PROPERTY
Idih
SciTegic.value.DoubleValue
0.001

@<SCITEGIC>MOL_PROPERTY
Tether
SciTegic.value.DoubleValue
0.000

@<TRIPOS>MOLECULE
CD_guest-8_vm2_single.mol2 : vm2 host+ligand conformer 3
         151         156           2
SMALL
USER_CHARGES
 
@<TRIPOS>ATOM
       1    C1      16.242092   15.018333   21.184289 C.3        1 MOL1         0.2972
       2    H1      15.165956   14.854729   21.046980 H          1 MOL1         0.0751
       3    O1      16.556615   16.416671   21.338455 O.3        1 MOL1        -0.3740
       4    C2      16.735022   14.258625   22.440941 C.3        1 MOL1         0.1003
       5    H2      16.529967   13.192444   22.278765 H          1 MOL1         0.0783
       6    O2      16.046146   14.695382   23.620717 O.3        1 MOL1        -0.5519
       7    H3      16.542516   14.283844   24.363558 H          1 MOL1         0.3769
       8    C3      18.260574   14.424611   22.628107 C.3        1 MOL1         0.1053
       9    H4      18.462118   15.470859   22.895198 H          1 MOL1         0.0783
      10    O3      18.707318   13.558226   23.678261 O.3        1 MOL1        -0.5519
      11    H5      19.694918   13.619021   23.697699 H          1 MOL1         0.3769
      12    C4      19.030571   14.097851   21.324240 C.3        1 MOL1         0.1018
      13    H6      19.042192   13.008717   21.184997 H          1 MOL1         0.0783
      14    C5      18.407159   14.767565   20.069619 C.3        1 MOL1         0.1043
      15    H7      18.604203   15.846598   20.106653 H          1 MOL1         0.0783
      16    O4      16.980215   14.511432   20.052369 O.3        1 MOL1        -0.3740
      17    C6      18.991939   14.212306   18.753904 C.3        1 MOL1         0.0138
      18    H8      18.803123   13.131895   18.700229 H          1 MOL1         0.0794
      19    H9      20.078701   14.363868   18.746518 H          1 MOL1         0.0794
      20    O5      18.404327   14.878464   17.634740 O.3        1 MOL1        -0.5486
      21    H10     17.431171   14.822517   17.764823 H          1 MOL1         0.3769
      22    C7      14.904377   20.228130   20.979997 C.3        1 MOL1         0.2972
      23    H11     14.239982   21.073806   20.760385 H          1 MOL1         0.0751
      24    O6      16.213571   20.674321   21.378801 O.3        1 MOL1        -0.3740
      25    C8      14.313788   19.344484   22.111190 C.3        1 MOL1         0.1003
      26    H12     13.326619   19.001864   21.774789 H          1 MOL1         0.0783
      27    O7      14.166466   20.081563   23.332705 O.3        1 MOL1        -0.5519
      28    H13     13.901097   19.408312   23.998951 H          1 MOL1         0.3769
      29    C9      15.189718   18.094010   22.364283 C.3        1 MOL1         0.1053
      30    H14     16.143671   18.424599   22.798433 H          1 MOL1         0.0783
      31    O8      14.515977   17.216972   23.275447 O.3        1 MOL1        -0.5519
      32    H15     15.103959   16.430273   23.399396 H          1 MOL1         0.3769
      33    C10     15.495286   17.343894   21.045075 C.3        1 MOL1         0.1018
      34    H16     14.584494   16.836485   20.700911 H          1 MOL1         0.0783
      35    C11     15.992716   18.303390   19.932607 C.3        1 MOL1         0.1043
      36    H17     16.984757   18.678431   20.212519 H          1 MOL1         0.0783
      37    O9      15.063359   19.407209   19.803297 O.3        1 MOL1        -0.3740
      38    C12     16.117452   17.629464   18.549189 C.3        1 MOL1         0.0138
      39    H18     16.865531   16.830467   18.610563 H          1 MOL1         0.0794
      40    H19     16.489637   18.369405   17.828072 H          1 MOL1         0.0794
      41    O10     14.861191   17.099300   18.115948 O.3        1 MOL1        -0.5486
      42    H20     14.226095   17.848828   18.140338 H          1 MOL1         0.3769
      43    C13     18.497497   24.068948   21.802696 C.3        1 MOL1         0.2972
      44    H21     18.914102   25.073471   21.950081 H          1 MOL1         0.0751
      45    O11     19.498781   23.132464   21.359668 O.3        1 MOL1        -0.3740
      46    C14     17.878091   23.546135   23.121061 C.3        1 MOL1         0.1003
      47    H22     17.053081   24.219720   23.387021 H          1 MOL1         0.0783
      48    O12     18.839533   23.537556   24.185322 O.3        1 MOL1        -0.5519
      49    H23     18.416968   23.003099   24.894797 H          1 MOL1         0.3769
      50    C15     17.290530   22.131060   22.920711 C.3        1 MOL1         0.1053
      51    H24     18.122156   21.438860   22.734000 H          1 MOL1         0.0783
      52    O13     16.575751   21.739879   24.098803 O.3        1 MOL1        -0.5519
      53    H25     15.949393   21.027768   23.823001 H          1 MOL1         0.3769
      54    C16     16.339556   22.071371   21.700781 C.3        1 MOL1         0.1018
      55    H26     15.376239   22.513461   21.989012 H          1 MOL1         0.0783
      56    C17     16.909408   22.794811   20.445837 C.3        1 MOL1         0.1043
      57    H27     17.708904   22.170070   20.026007 H          1 MOL1         0.0783
      58    O14     17.445791   24.091063   20.814466 O.3        1 MOL1        -0.3740
      59    C18     15.865329   23.022548   19.329965 C.3        1 MOL1         0.0138
      60    H28     15.541863   22.050366   18.935653 H          1 MOL1         0.0794
      61    H29     16.345551   23.564003   18.503840 H          1 MOL1         0.0794
      62    O15     14.739263   23.758332   19.816862 O.3        1 MOL1        -0.5486
      63    H30     15.095044   24.604044   20.169972 H          1 MOL1         0.3769
      64    C19     23.510379   22.713321   20.574811 C.3        1 MOL1         0.2972
      65    H31     24.556773   22.787249   20.251853 H          1 MOL1         0.0751
      66    O16     23.181923   21.370937   20.994482 O.3        1 MOL1        -0.3740
      67    C20     23.204208   23.720831   21.716606 C.3        1 MOL1         0.1003
      68    H32     23.336329   24.728527   21.302461 H          1 MOL1         0.0783
      69    O17     24.117033   23.554321   22.811810 O.3        1 MOL1        -0.5519
      70    H33     23.889901   22.693136   23.242615 H          1 MOL1         0.3769
      71    C21     21.724395   23.586050   22.166456 C.3        1 MOL1         0.1053
      72    H34     21.597882   22.593564   22.620842 H          1 MOL1         0.0783
      73    O18     21.387361   24.598152   23.123024 O.3        1 MOL1        -0.5519
      74    H35     20.560840   24.288819   23.568887 H          1 MOL1         0.3769
      75    C22     20.760666   23.688991   20.951755 C.3        1 MOL1         0.1018
      76    H36     20.663091   24.738446   20.643450 H          1 MOL1         0.0783
      77    C23     21.221553   22.848993   19.731682 C.3        1 MOL1         0.1043
      78    H37     21.027450   21.795401   19.960201 H          1 MOL1         0.0783
      79    O19     22.634838   23.048295   19.479718 O.3        1 MOL1        -0.3740
      80    C24     20.458440   23.193119   18.433901 C.3        1 MOL1         0.0138
      81    H38     19.384904   23.029907   18.593982 H          1 MOL1         0.0794
      82    H39     20.781915   22.503469   17.642712 H          1 MOL1         0.0794
      83    O20     20.698456   24.547585   18.041035 O.3        1 MOL1        -0.5486
      84    H40     21.675488   24.647542   17.996959 H          1 MOL1         0.3769
      85    C25     24.840737   17.777660   22.211093 C.3        1 MOL1         0.2972
      86    H41     25.492724   16.971009   22.569462 H          1 MOL1         0.0751
      87    O21     23.602314   17.260510   21.680958 O.3        1 MOL1        -0.3740
      88    C26     24.526421   18.760969   23.369202 C.3        1 MOL1         0.1003
      89    H42     25.482611   19.174823   23.714463 H          1 MOL1         0.0783
      90    O22     23.902697   18.056144   24.456464 O.3        1 MOL1        -0.5519
      91    H43     23.331321   18.695587   24.955967 H          1 MOL1         0.3769
      92    C27     23.655236   19.944692   22.874871 C.3        1 MOL1         0.1053
      93    H44     22.655333   19.557664   22.643858 H          1 MOL1         0.0783
      94    O23     23.574368   20.948146   23.895281 O.3        1 MOL1        -0.5519
      95    H45     23.000465   20.581879   24.616874 H          1 MOL1         0.3769
      96    C28     24.237650   20.590474   21.589108 C.3        1 MOL1         0.1018
      97    H46     25.097148   21.213658   21.869398 H          1 MOL1         0.0783
      98    C29     24.677232   19.541747   20.531461 C.3        1 MOL1         0.1043
      99    H47     23.774413   19.087157   20.102492 H          1 MOL1         0.0783
     100    O24     25.491779   18.522261   21.160477 O.3        1 MOL1        -0.3740
     101    C30     25.491603   20.144135   19.365057 C.3        1 MOL1         0.0138
     102    H48     24.852663   20.839293   18.804324 H          1 MOL1         0.0794
     103    H49     25.774384   19.335049   18.678306 H          1 MOL1         0.0794
     104    O25     26.658156   20.820981   19.842116 O.3        1 MOL1        -0.5486
     105    H50     27.165006   20.159571   20.363752 H          1 MOL1         0.3769
     106    C31     21.457212   13.732377   21.316484 C.3        1 MOL1         0.2972
     107    H51     21.119714   12.701859   21.150652 H          1 MOL1         0.0751
     108    O26     20.351829   14.639174   21.500818 O.3        1 MOL1        -0.3740
     109    C32     22.363612   13.801906   22.569738 C.3        1 MOL1         0.1003
     110    H52     23.233311   13.158588   22.382877 H          1 MOL1         0.0783
     111    O27     21.673657   13.336197   23.737717 O.3        1 MOL1        -0.5519
     112    H53     22.270468   13.567913   24.484722 H          1 MOL1         0.3769
     113    C33     22.877145   15.241483   22.802234 C.3        1 MOL1         0.1053
     114    H54     22.016004   15.867649   23.072206 H          1 MOL1         0.0783
     115    O28     23.824217   15.229794   23.876636 O.3        1 MOL1        -0.5519
     116    H55     23.907509   16.170067   24.174742 H          1 MOL1         0.3769
     117    C34     23.517886   15.831416   21.516059 C.3        1 MOL1         0.1018
     118    H56     24.508621   15.385202   21.357619 H          1 MOL1         0.0783
     119    C35     22.649231   15.582839   20.251475 C.3        1 MOL1         0.1043
     120    H57     21.764830   16.231587   20.299883 H          1 MOL1         0.0783
     121    O29     22.234500   14.194641   20.193330 O.3        1 MOL1        -0.3740
     122    C36     23.397279   15.901706   18.938120 C.3        1 MOL1         0.0138
     123    H58     23.723995   16.949682   18.955708 H          1 MOL1         0.0794
     124    H59     22.698686   15.787825   18.098323 H          1 MOL1         0.0794
     125    O30     24.524580   15.037788   18.766665 O.3        1 MOL1        -0.5486
     126    H60     24.179770   14.121758   18.859145 H          1 MOL1         0.3769
     127    C1      20.708008   19.615368   25.635372 C.2        1 MOL1         0.6168
     128    O1      19.994124   19.487831   26.610346 O.co2      1 MOL1        -0.6703
     129    O2      21.924127   19.639087   25.682993 O.co2      1 MOL1        -0.6703
     130    C2      20.047673   19.734581   24.265918 C.3        1 MOL1        -0.1963
     131    H1      20.640614   20.429040   23.661495 H          1 MOL1         0.0750
     132    H2      19.062385   20.191121   24.409234 H          1 MOL1         0.0750
     133    C3      19.896533   18.366194   23.553476 C.3        1 MOL1        -0.1860
     134    H3      20.867735   17.854466   23.525426 H          1 MOL1         0.0752
     135    H4      19.230899   17.733013   24.155823 H          1 MOL1         0.0752
     136    C4      19.324082   18.478256   22.121538 C.3        1 MOL1        -0.1858
     137    H5      18.444807   19.134575   22.118417 H          1 MOL1         0.0752
     138    H6      18.975839   17.485763   21.812957 H          1 MOL1         0.0752
     139    C5      20.365368   18.970754   21.092821 C.3        1 MOL1        -0.1858
     140    H7      20.710285   19.977705   21.357601 H          1 MOL1         0.0752
     141    H8      21.241064   18.313350   21.134569 H          1 MOL1         0.0752
     142    C6      19.801910   18.982096   19.655951 C.3        1 MOL1        -0.1858
     143    H9      19.072972   19.798119   19.560131 H          1 MOL1         0.0752
     144    H10     19.263289   18.045522   19.461645 H          1 MOL1         0.0752
     145    C7      20.915219   19.137026   18.598497 C.3        1 MOL1        -0.1834
     146    H11     21.530152   20.019023   18.813709 H          1 MOL1         0.0752
     147    H12     21.586523   18.270456   18.646564 H          1 MOL1         0.0752
     148    C8      20.329901   19.249454   17.177467 C.3        1 MOL1        -0.2849
     149    H13     19.670306   20.122530   17.092151 H          1 MOL1         0.0764
     150    H14     21.132054   19.355390   16.435966 H          1 MOL1         0.0764
     151    H15     19.747915   18.353789   16.922775 H          1 MOL1         0.0764
@<TRIPOS>BOND
    1     1     2    1
    2     1     3    1
    3     1     4    1
    4     4     5    1
    5     4     6    1
    6     6     7    1
    7     4     8    1
    8     8     9    1
    9     8    10    1
   10    10    11    1
   11     8    12    1
   12    12    13    1
   13    12    14    1
   14    14    15    1
   15     1    16    1
   16    14    16    1
   17    14    17    1
   18    17    18    1
   19    17    19    1
   20    17    20    1
   21    20    21    1
   22    22    23    1
   23    22    24    1
   24    22    25    1
   25    25    26    1
   26    25    27    1
   27    27    28    1
   28    25    29    1
   29    29    30    1
   30    29    31    1
   31    31    32    1
   32     3    33    1
   33    29    33    1
   34    33    34    1
   35    33    35    1
   36    35    36    1
   37    22    37    1
   38    35    37    1
   39    35    38    1
   40    38    39    1
   41    38    40    1
   42    38    41    1
   43    41    42    1
   44    43    44    1
   45    43    45    1
   46    43    46    1
   47    46    47    1
   48    46    48    1
   49    48    49    1
   50    46    50    1
   51    50    51    1
   52    50    52    1
   53    52    53    1
   54    24    54    1
   55    50    54    1
   56    54    55    1
   57    54    56    1
   58    56    57    1
   59    43    58    1
   60    56    58    1
   61    56    59    1
   62    59    60    1
   63    59    61    1
   64    59    62    1
   65    62    63    1
   66    64    65    1
   67    64    66    1
   68    64    67    1
   69    67    68    1
   70    67    69    1
   71    69    70    1
   72    67    71    1
   73    71    72    1
   74    71    73    1
   75    73    74    1
   76    45    75    1
   77    71    75    1
   78    75    76    1
   79    75    77    1
   80    77    78    1
   81    64    79    1
   82    77    79    1
   83    77    80    1
   84    80    81    1
   85    80    82    1
   86    80    83    1
   87    83    84    1
   88    85    86    1
   89    85    87    1
   90    85    88    1
   91    88    89    1
   92    88    90    1
   93    90    91    1
   94    88    92    1
   95    92    93    1
   96    92    94    1
   97    94    95    1
   98    66    96    1
   99    92    96    1
  100    96    97    1
  101    96    98    1
  102    98    99    1
  103    85   100    1
  104    98   100    1
  105    98   101    1
  106   101   102    1
  107   101   103    1
  108   101   104    1
  109   104   105    1
  110   106   107    1
  111    12   108    1
  112   106   108    1
  113   106   109    1
  114   109   110    1
  115   109   111    1
  116   111   112    1
  117   109   113    1
  118   113   114    1
  119   113   115    1
  120   115   116    1
  121    87   117    1
  122   113   117    1
  123   117   118    1
  124   117   119    1
  125   119   120    1
  126   106   121    1
  127   119   121    1
  128   119   122    1
  129   122   123    1
  130   122   124    1
  131   122   125    1
  132   125   126    1
  133   127   128    1
  134   127   129    2
  135   127   130    1
  136   130   131    1
  137   130   132    1
  138   130   133    1
  139   133   134    1
  140   133   135    1
  141   133   136    1
  142   136   137    1
  143   136   138    1
  144   136   139    1
  145   139   140    1
  146   139   141    1
  147   139   142    1
  148   142   143    1
  149   142   144    1
  150   142   145    1
  151   145   146    1
  152   145   147    1
  153   145   148    1
  154   148   149    1
  155   148   150    1
  156   148   151    1
@<TRIPOS>SUBSTRUCTURE
       1 MOL1            1 RESIDUE      1      MOL     
       2 MOL1          151 RESIDUE      1      MOL     
@<SCITEGIC>MOL_PROPERTY
VM2 Rank
SciTegic.value.IntegerValue
3

@<SCITEGIC>MOL_PROPERTY
Conf_Id
SciTegic.value.IntegerValue
26447

@<SCITEGIC>MOL_PROPERTY
Probability
SciTegic.value.DoubleValue
3.02

@<SCITEGIC>MOL_PROPERTY
Sum Probability
SciTegic.value.DoubleValue
12.41

@<SCITEGIC>MOL_PROPERTY
Delta G
SciTegic.value.DoubleValue
0.424

@<SCITEGIC>MOL_PROPERTY
G
SciTegic.value.DoubleValue
505.247

@<SCITEGIC>MOL_PROPERTY
E
SciTegic.value.DoubleValue
307.990

@<SCITEGIC>MOL_PROPERTY
-TS
SciTegic.value.DoubleValue
197.256

@<SCITEGIC>MOL_PROPERTY
U+W
SciTegic.value.DoubleValue
174.748

@<SCITEGIC>MOL_PROPERTY
U
SciTegic.value.DoubleValue
246.820

@<SCITEGIC>MOL_PROPERTY
W
SciTegic.value.DoubleValue
-72.072

@<SCITEGIC>MOL_PROPERTY
W(PB)
SciTegic.value.DoubleValue
-78.220

@<SCITEGIC>MOL_PROPERTY
W(SA)
SciTegic.value.DoubleValue
6.148

@<SCITEGIC>MOL_PROPERTY
Valence
SciTegic.value.DoubleValue
151.348

@<SCITEGIC>MOL_PROPERTY
Coulomb
SciTegic.value.DoubleValue
123.093

@<SCITEGIC>MOL_PROPERTY
VdW
SciTegic.value.DoubleValue
-27.620

@<SCITEGIC>MOL_PROPERTY
VdW6
SciTegic.value.DoubleValue
-184.961

@<SCITEGIC>MOL_PROPERTY
VdW12
SciTegic.value.DoubleValue
157.341

@<SCITEGIC>MOL_PROPERTY
Bond
SciTegic.value.DoubleValue
4.456

@<SCITEGIC>MOL_PROPERTY
Angle
SciTegic.value.DoubleValue
11.349

@<SCITEGIC>MOL_PROPERTY
Pdih
SciTegic.value.DoubleValue
135.542

@<SCITEGIC>MOL_PROPERTY
Idih
SciTegic.value.DoubleValue
0.001

@<SCITEGIC>MOL_PROPERTY
Tether
SciTegic.value.DoubleValue
0.000

@<TRIPOS>MOLECULE
CD_guest-8_vm2_single.mol2 : vm2 host+ligand conformer 4
         151         156           2
SMALL
USER_CHARGES
 
@<TRIPOS>ATOM
       1    C1      16.208239   15.055766   21.238072 C.3        1 MOL1         0.2972
       2    H1      15.126366   14.897385   21.147440 H          1 MOL1         0.0751
       3    O1      16.540663   16.457346   21.297941 O.3        1 MOL1        -0.3740
       4    C2      16.736976   14.362215   22.518718 C.3        1 MOL1         0.1003
       5    H2      16.528558   13.289039   22.418418 H          1 MOL1         0.0783
       6    O2      16.082183   14.860714   23.693308 O.3        1 MOL1        -0.5519
       7    H3      16.607056   14.496544   24.441417 H          1 MOL1         0.3769
       8    C3      18.266634   14.536781   22.652621 C.3        1 MOL1         0.1053
       9    H4      18.476460   15.596919   22.845088 H          1 MOL1         0.0783
      10    O3      18.746116   13.740086   23.743130 O.3        1 MOL1        -0.5519
      11    H5      19.733739   13.745214   23.685074 H          1 MOL1         0.3769
      12    C4      18.995830   14.122819   21.351724 C.3        1 MOL1         0.1018
      13    H6      19.008450   13.026239   21.298445 H          1 MOL1         0.0783
      14    C5      18.332332   14.701789   20.071608 C.3        1 MOL1         0.1043
      15    H7      18.532119   15.780626   20.040073 H          1 MOL1         0.0783
      16    O4      16.900088   14.480413   20.110192 O.3        1 MOL1        -0.3740
      17    C6      18.885550   14.093283   18.760872 C.3        1 MOL1         0.0138
      18    H8      19.907976   14.464169   18.609669 H          1 MOL1         0.0794
      19    H9      18.279037   14.459335   17.921702 H          1 MOL1         0.0794
      20    O5      18.887323   12.659897   18.786985 O.3        1 MOL1        -0.5486
      21    H10     19.219353   12.347218   17.917549 H          1 MOL1         0.3769
      22    C7      14.919209   20.267746   20.880946 C.3        1 MOL1         0.2972
      23    H11     14.271052   21.121521   20.644840 H          1 MOL1         0.0751
      24    O6      16.230121   20.698352   21.293040 O.3        1 MOL1        -0.3740
      25    C8      14.297139   19.399255   22.006797 C.3        1 MOL1         0.1003
      26    H12     13.315398   19.060232   21.651344 H          1 MOL1         0.0783
      27    O7      14.126759   20.146626   23.218590 O.3        1 MOL1        -0.5519
      28    H13     13.836889   19.481065   23.882475 H          1 MOL1         0.3769
      29    C9      15.158769   18.145506   22.288485 C.3        1 MOL1         0.1053
      30    H14     16.108337   18.474544   22.733398 H          1 MOL1         0.0783
      31    O8      14.464248   17.286138   23.200755 O.3        1 MOL1        -0.5519
      32    H15     15.063195   16.518233   23.378430 H          1 MOL1         0.3769
      33    C10     15.479161   17.377139   20.982773 C.3        1 MOL1         0.1018
      34    H16     14.574446   16.862260   20.633424 H          1 MOL1         0.0783
      35    C11     15.990307   18.316964   19.859729 C.3        1 MOL1         0.1043
      36    H17     16.988250   18.679486   20.135035 H          1 MOL1         0.0783
      37    O9      15.080306   19.435297   19.713102 O.3        1 MOL1        -0.3740
      38    C12     16.099573   17.619873   18.485787 C.3        1 MOL1         0.0138
      39    H18     16.794886   16.774398   18.564610 H          1 MOL1         0.0794
      40    H19     16.525935   18.329450   17.764087 H          1 MOL1         0.0794
      41    O10     14.818970   17.165340   18.038392 O.3        1 MOL1        -0.5486
      42    H20     14.226620   17.949159   18.071990 H          1 MOL1         0.3769
      43    C13     18.506100   24.083521   21.862749 C.3        1 MOL1         0.2972
      44    H21     18.915451   25.084455   22.049576 H          1 MOL1         0.0751
      45    O11     19.517556   23.167914   21.400548 O.3        1 MOL1        -0.3740
      46    C14     17.874212   23.512041   23.154586 C.3        1 MOL1         0.1003
      47    H22     17.043576   24.172937   23.434519 H          1 MOL1         0.0783
      48    O12     18.823322   23.469906   24.229077 O.3        1 MOL1        -0.5519
      49    H23     18.395505   22.907251   24.913218 H          1 MOL1         0.3769
      50    C15     17.294122   22.102608   22.898818 C.3        1 MOL1         0.1053
      51    H24     18.129645   21.419366   22.697021 H          1 MOL1         0.0783
      52    O13     16.569751   21.671316   24.056703 O.3        1 MOL1        -0.5519
      53    H25     15.923612   20.991865   23.746783 H          1 MOL1         0.3769
      54    C16     16.355903   22.083073   21.667274 C.3        1 MOL1         0.1018
      55    H26     15.390003   22.517218   21.959067 H          1 MOL1         0.0783
      56    C17     16.940781   22.848458   20.444657 C.3        1 MOL1         0.1043
      57    H27     17.748873   22.240545   20.016590 H          1 MOL1         0.0783
      58    O14     17.466368   24.134096   20.862787 O.3        1 MOL1        -0.3740
      59    C18     15.911942   23.107464   19.321521 C.3        1 MOL1         0.0138
      60    H28     15.598439   22.146727   18.892440 H          1 MOL1         0.0794
      61    H29     16.401666   23.676473   18.519859 H          1 MOL1         0.0794
      62    O15     14.775788   23.823123   19.814913 O.3        1 MOL1        -0.5486
      63    H30     15.122769   24.658445   20.200053 H          1 MOL1         0.3769
      64    C19     23.536684   22.774156   20.666132 C.3        1 MOL1         0.2972
      65    H31     24.588560   22.853375   20.362770 H          1 MOL1         0.0751
      66    O16     23.195316   21.420768   21.038315 O.3        1 MOL1        -0.3740
      67    C20     23.215691   23.745872   21.834253 C.3        1 MOL1         0.1003
      68    H32     23.355425   24.765919   21.454240 H          1 MOL1         0.0783
      69    O17     24.112504   23.542557   22.936402 O.3        1 MOL1        -0.5519
      70    H33     23.882196   22.665830   23.332777 H          1 MOL1         0.3769
      71    C21     21.729035   23.599462   22.257325 C.3        1 MOL1         0.1053
      72    H34     21.594692   22.593199   22.677913 H          1 MOL1         0.0783
      73    O18     21.378519   24.580666   23.240775 O.3        1 MOL1        -0.5519
      74    H35     20.546937   24.256207   23.666012 H          1 MOL1         0.3769
      75    C22     20.783374   23.742715   21.032310 C.3        1 MOL1         0.1018
      76    H36     20.686834   24.802071   20.759600 H          1 MOL1         0.0783
      77    C23     21.263127   22.946742   19.790304 C.3        1 MOL1         0.1043
      78    H37     21.062838   21.886579   19.978105 H          1 MOL1         0.0783
      79    O19     22.680843   23.149178   19.568519 O.3        1 MOL1        -0.3740
      80    C24     20.521412   23.339005   18.493770 C.3        1 MOL1         0.0138
      81    H38     19.444960   23.174242   18.631620 H          1 MOL1         0.0794
      82    H39     20.854767   22.676379   17.683795 H          1 MOL1         0.0794
      83    O20     20.771834   24.705571   18.152731 O.3        1 MOL1        -0.5486
      84    H40     21.749745   24.803533   18.127498 H          1 MOL1         0.3769
      85    C25     24.823727   17.777941   22.147343 C.3        1 MOL1         0.2972
      86    H41     25.469652   16.955925   22.480833 H          1 MOL1         0.0751
      87    O21     23.581073   17.286825   21.603107 O.3        1 MOL1        -0.3740
      88    C26     24.513969   18.726745   23.334582 C.3        1 MOL1         0.1003
      89    H42     25.471995   19.124336   23.693573 H          1 MOL1         0.0783
      90    O22     23.885525   17.990655   24.398433 O.3        1 MOL1        -0.5519
      91    H43     23.305607   18.613879   24.908501 H          1 MOL1         0.3769
      92    C27     23.650169   19.930165   22.874543 C.3        1 MOL1         0.1053
      93    H44     22.648959   19.556790   22.626513 H          1 MOL1         0.0783
      94    O23     23.570302   20.901050   23.925861 O.3        1 MOL1        -0.5519
      95    H45     22.989473   20.515449   24.631686 H          1 MOL1         0.3769
      96    C28     24.241904   20.612896   21.612264 C.3        1 MOL1         0.1018
      97    H46     25.105358   21.219755   21.915429 H          1 MOL1         0.0783
      98    C29     24.676130   19.594884   20.522902 C.3        1 MOL1         0.1043
      99    H47     23.770924   19.160947   20.077868 H          1 MOL1         0.0783
     100    O24     25.481366   18.549681   21.120666 O.3        1 MOL1        -0.3740
     101    C30     25.497917   20.228124   19.378218 C.3        1 MOL1         0.0138
     102    H48     24.865804   20.946167   18.838976 H          1 MOL1         0.0794
     103    H49     25.775923   19.439449   18.666237 H          1 MOL1         0.0794
     104    O25     26.668622   20.879938   19.879411 O.3        1 MOL1        -0.5486
     105    H50     27.169227   20.197916   20.380121 H          1 MOL1         0.3769
     106    C31     21.412126   13.779829   21.174724 C.3        1 MOL1         0.2972
     107    H51     21.063368   12.759279   20.972544 H          1 MOL1         0.0751
     108    O26     20.319277   14.679196   21.445784 O.3        1 MOL1        -0.3740
     109    C32     22.360884   13.795712   22.398640 C.3        1 MOL1         0.1003
     110    H52     23.222478   13.159807   22.157094 H          1 MOL1         0.0783
     111    O27     21.708408   13.285722   23.570169 O.3        1 MOL1        -0.5519
     112    H53     22.332032   13.483168   24.304925 H          1 MOL1         0.3769
     113    C33     22.882844   15.226014   22.671568 C.3        1 MOL1         0.1053
     114    H54     22.030251   15.841285   22.989507 H          1 MOL1         0.0783
     115    O28     23.858962   15.176397   23.718694 O.3        1 MOL1        -0.5519
     116    H55     23.935927   16.102720   24.059196 H          1 MOL1         0.3769
     117    C34     23.485953   15.864820   21.390174 C.3        1 MOL1         0.1018
     118    H56     24.469643   15.422937   21.183174 H          1 MOL1         0.0783
     119    C35     22.576659   15.669593   20.145467 C.3        1 MOL1         0.1043
     120    H57     21.697580   16.319144   20.246988 H          1 MOL1         0.0783
     121    O29     22.151528   14.288275   20.045435 O.3        1 MOL1        -0.3740
     122    C36     23.287500   16.034097   18.823231 C.3        1 MOL1         0.0138
     123    H58     23.627496   17.076740   18.872910 H          1 MOL1         0.0794
     124    H59     22.562441   15.961789   18.001637 H          1 MOL1         0.0794
     125    O30     24.398478   15.165885   18.581752 O.3        1 MOL1        -0.5486
     126    H60     24.046180   14.250769   18.653505 H          1 MOL1         0.3769
     127    C1      20.679476   19.528951   25.585417 C.2        1 MOL1         0.6168
     128    O1      19.952911   19.385814   26.548776 O.co2      1 MOL1        -0.6703
     129    O2      21.895058   19.540541   25.648157 O.co2      1 MOL1        -0.6703
     130    C2      20.036588   19.685198   24.211288 C.3        1 MOL1        -0.1963
     131    H1      20.628507   20.406535   23.638123 H          1 MOL1         0.0750
     132    H2      19.043487   20.124123   24.355924 H          1 MOL1         0.0750
     133    C3      19.912637   18.339268   23.452523 C.3        1 MOL1        -0.1860
     134    H3      20.893608   17.847914   23.406363 H          1 MOL1         0.0752
     135    H4      19.260593   17.673478   24.034095 H          1 MOL1         0.0752
     136    C4      19.334924   18.488020   22.026020 C.3        1 MOL1        -0.1858
     137    H5      18.438200   19.120008   22.048235 H          1 MOL1         0.0752
     138    H6      19.012204   17.498814   21.681365 H          1 MOL1         0.0752
     139    C5      20.358751   19.044395   21.012557 C.3        1 MOL1        -0.1858
     140    H7      20.673638   20.052523   21.308821 H          1 MOL1         0.0752
     141    H8      21.254942   18.414351   21.032053 H          1 MOL1         0.0752
     142    C6      19.787896   19.081106   19.578677 C.3        1 MOL1        -0.1858
     143    H9      19.044224   19.886428   19.507626 H          1 MOL1         0.0752
     144    H10     19.263967   18.140222   19.365139 H          1 MOL1         0.0752
     145    C7      20.891102   19.280565   18.518091 C.3        1 MOL1        -0.1834
     146    H11     21.501342   20.159202   18.757781 H          1 MOL1         0.0752
     147    H12     21.569878   18.418957   18.531956 H          1 MOL1         0.0752
     148    C8      20.294053   19.437462   17.106125 C.3        1 MOL1        -0.2849
     149    H13     19.630965   20.310698   17.055367 H          1 MOL1         0.0764
     150    H14     21.090059   19.571938   16.362553 H          1 MOL1         0.0764
     151    H15     19.713255   18.549335   16.825305 H          1 MOL1         0.0764
@<TRIPOS>BOND
    1     1     2    1
    2     1     3    1
    3     1     4    1
    4     4     5    1
    5     4     6    1
    6     6     7    1
    7     4     8    1
    8     8     9    1
    9     8    10    1
   10    10    11    1
   11     8    12    1
   12    12    13    1
   13    12    14    1
   14    14    15    1
   15     1    16    1
   16    14    16    1
   17    14    17    1
   18    17    18    1
   19    17    19    1
   20    17    20    1
   21    20    21    1
   22    22    23    1
   23    22    24    1
   24    22    25    1
   25    25    26    1
   26    25    27    1
   27    27    28    1
   28    25    29    1
   29    29    30    1
   30    29    31    1
   31    31    32    1
   32     3    33    1
   33    29    33    1
   34    33    34    1
   35    33    35    1
   36    35    36    1
   37    22    37    1
   38    35    37    1
   39    35    38    1
   40    38    39    1
   41    38    40    1
   42    38    41    1
   43    41    42    1
   44    43    44    1
   45    43    45    1
   46    43    46    1
   47    46    47    1
   48    46    48    1
   49    48    49    1
   50    46    50    1
   51    50    51    1
   52    50    52    1
   53    52    53    1
   54    24    54    1
   55    50    54    1
   56    54    55    1
   57    54    56    1
   58    56    57    1
   59    43    58    1
   60    56    58    1
   61    56    59    1
   62    59    60    1
   63    59    61    1
   64    59    62    1
   65    62    63    1
   66    64    65    1
   67    64    66    1
   68    64    67    1
   69    67    68    1
   70    67    69    1
   71    69    70    1
   72    67    71    1
   73    71    72    1
   74    71    73    1
   75    73    74    1
   76    45    75    1
   77    71    75    1
   78    75    76    1
   79    75    77    1
   80    77    78    1
   81    64    79    1
   82    77    79    1
   83    77    80    1
   84    80    81    1
   85    80    82    1
   86    80    83    1
   87    83    84    1
   88    85    86    1
   89    85    87    1
   90    85    88    1
   91    88    89    1
   92    88    90    1
   93    90    91    1
   94    88    92    1
   95    92    93    1
   96    92    94    1
   97    94    95    1
   98    66    96    1
   99    92    96    1
  100    96    97    1
  101    96    98    1
  102    98    99    1
  103    85   100    1
  104    98   100    1
  105    98   101    1
  106   101   102    1
  107   101   103    1
  108   101   104    1
  109   104   105    1
  110   106   107    1
  111    12   108    1
  112   106   108    1
  113   106   109    1
  114   109   110    1
  115   109   111    1
  116   111   112    1
  117   109   113    1
  118   113   114    1
  119   113   115    1
  120   115   116    1
  121    87   117    1
  122   113   117    1
  123   117   118    1
  124   117   119    1
  125   119   120    1
  126   106   121    1
  127   119   121    1
  128   119   122    1
  129   122   123    1
  130   122   124    1
  131   122   125    1
  132   125   126    1
  133   127   128    1
  134   127   129    2
  135   127   130    1
  136   130   131    1
  137   130   132    1
  138   130   133    1
  139   133   134    1
  140   133   135    1
  141   133   136    1
  142   136   137    1
  143   136   138    1
  144   136   139    1
  145   139   140    1
  146   139   141    1
  147   139   142    1
  148   142   143    1
  149   142   144    1
  150   142   145    1
  151   145   146    1
  152   145   147    1
  153   145   148    1
  154   148   149    1
  155   148   150    1
  156   148   151    1
@<TRIPOS>SUBSTRUCTURE
       1 MOL1            1 RESIDUE      1      MOL     
       2 MOL1          151 RESIDUE      1      MOL     
@<SCITEGIC>MOL_PROPERTY
VM2 Rank
SciTegic.value.IntegerValue
4

@<SCITEGIC>MOL_PROPERTY
Conf_Id
SciTegic.value.IntegerValue
23362

@<SCITEGIC>MOL_PROPERTY
Probability
SciTegic.value.DoubleValue
2.61

@<SCITEGIC>MOL_PROPERTY
Sum Probability
SciTegic.value.DoubleValue
15.03

@<SCITEGIC>MOL_PROPERTY
Delta G
SciTegic.value.DoubleValue
0.509

@<SCITEGIC>MOL_PROPERTY
G
SciTegic.value.DoubleValue
505.332

@<SCITEGIC>MOL_PROPERTY
E
SciTegic.value.DoubleValue
308.335

@<SCITEGIC>MOL_PROPERTY
-TS
SciTegic.value.DoubleValue
196.997

@<SCITEGIC>MOL_PROPERTY
U+W
SciTegic.value.DoubleValue
175.093

@<SCITEGIC>MOL_PROPERTY
U
SciTegic.value.DoubleValue
248.873

@<SCITEGIC>MOL_PROPERTY
W
SciTegic.value.DoubleValue
-73.779

@<SCITEGIC>MOL_PROPERTY
W(PB)
SciTegic.value.DoubleValue
-79.998

@<SCITEGIC>MOL_PROPERTY
W(SA)
SciTegic.value.DoubleValue
6.219

@<SCITEGIC>MOL_PROPERTY
Valence
SciTegic.value.DoubleValue
150.632

@<SCITEGIC>MOL_PROPERTY
Coulomb
SciTegic.value.DoubleValue
125.351

@<SCITEGIC>MOL_PROPERTY
VdW
SciTegic.value.DoubleValue
-27.111

@<SCITEGIC>MOL_PROPERTY
VdW6
SciTegic.value.DoubleValue
-184.927

@<SCITEGIC>MOL_PROPERTY
VdW12
SciTegic.value.DoubleValue
157.816

@<SCITEGIC>MOL_PROPERTY
Bond
SciTegic.value.DoubleValue
4.488

@<SCITEGIC>MOL_PROPERTY
Angle
SciTegic.value.DoubleValue
11.608

@<SCITEGIC>MOL_PROPERTY
Pdih
SciTegic.value.DoubleValue
134.535

@<SCITEGIC>MOL_PROPERTY
Idih
SciTegic.value.DoubleValue
0.001

@<SCITEGIC>MOL_PROPERTY
Tether
SciTegic.value.DoubleValue
0.000

@<TRIPOS>MOLECULE
CD_guest-8_vm2_single.mol2 : vm2 host+ligand conformer 5
         151         156           2
SMALL
USER_CHARGES
 
@<TRIPOS>ATOM
       1    C1      16.225766   15.070237   21.054293 C.3        1 MOL1         0.2972
       2    H1      15.154640   14.908281   20.880792 H          1 MOL1         0.0751
       3    O1      16.523599   16.457165   21.308100 O.3        1 MOL1        -0.3740
       4    C2      16.694684   14.239244   22.275274 C.3        1 MOL1         0.1003
       5    H2      16.500540   13.183245   22.046722 H          1 MOL1         0.0783
       6    O2      15.975596   14.605195   23.461510 O.3        1 MOL1        -0.5519
       7    H3      16.455816   14.152942   24.191170 H          1 MOL1         0.3769
       8    C3      18.214372   14.403240   22.509297 C.3        1 MOL1         0.1053
       9    H4      18.403146   15.436243   22.832154 H          1 MOL1         0.0783
      10    O3      18.643297   13.488866   23.525948 O.3        1 MOL1        -0.5519
      11    H5      19.628884   13.563028   23.577487 H          1 MOL1         0.3769
      12    C4      19.015277   14.146475   21.209420 C.3        1 MOL1         0.1018
      13    H6      19.031898   13.066359   21.013123 H          1 MOL1         0.0783
      14    C5      18.418735   14.885998   19.981444 C.3        1 MOL1         0.1043
      15    H7      18.608572   15.960037   20.097037 H          1 MOL1         0.0783
      16    O4      16.991994   14.644085   19.907734 O.3        1 MOL1        -0.3740
      17    C6      19.036251   14.438378   18.638394 C.3        1 MOL1         0.0138
      18    H8      20.111139   14.659910   18.643342 H          1 MOL1         0.0794
      19    H9      18.584932   15.027788   17.829245 H          1 MOL1         0.0794
      20    O5      18.819445   13.042124   18.414481 O.3        1 MOL1        -0.5486
      21    H10     17.848954   12.902948   18.487205 H          1 MOL1         0.3769
      22    C7      14.881697   20.277566   21.039187 C.3        1 MOL1         0.2972
      23    H11     14.214711   21.128872   20.851566 H          1 MOL1         0.0751
      24    O6      16.206999   20.713436   21.395884 O.3        1 MOL1        -0.3740
      25    C8      14.325812   19.385550   22.181192 C.3        1 MOL1         0.1003
      26    H12     13.328818   19.045197   21.872482 H          1 MOL1         0.0783
      27    O7      14.216064   20.111545   23.413041 O.3        1 MOL1        -0.5519
      28    H13     13.975782   19.431076   24.081609 H          1 MOL1         0.3769
      29    C9      15.209857   18.134018   22.394299 C.3        1 MOL1         0.1053
      30    H14     16.181598   18.460522   22.789858 H          1 MOL1         0.0783
      31    O8      14.574050   17.250940   23.327159 O.3        1 MOL1        -0.5519
      32    H15     15.137909   16.439077   23.378591 H          1 MOL1         0.3769
      33    C10     15.455913   17.390594   21.060266 C.3        1 MOL1         0.1018
      34    H16     14.526218   16.889911   20.759554 H          1 MOL1         0.0783
      35    C11     15.908292   18.349847   19.928256 C.3        1 MOL1         0.1043
      36    H17     16.914288   18.716714   20.166792 H          1 MOL1         0.0783
      37    O9      14.991822   19.469126   19.849097 O.3        1 MOL1        -0.3740
      38    C12     15.974410   17.674356   18.538039 C.3        1 MOL1         0.0138
      39    H18     16.811371   16.964307   18.536653 H          1 MOL1         0.0794
      40    H19     16.197694   18.442226   17.785394 H          1 MOL1         0.0794
      41    O10     14.757217   16.991527   18.210006 O.3        1 MOL1        -0.5486
      42    H20     14.873221   16.585712   17.323947 H          1 MOL1         0.3769
      43    C13     18.516872   24.096674   21.807509 C.3        1 MOL1         0.2972
      44    H21     18.937646   25.099715   21.953091 H          1 MOL1         0.0751
      45    O11     19.511037   23.158823   21.351304 O.3        1 MOL1        -0.3740
      46    C14     17.908101   23.572142   23.130293 C.3        1 MOL1         0.1003
      47    H22     17.086948   24.247092   23.404636 H          1 MOL1         0.0783
      48    O12     18.877038   23.558399   24.187479 O.3        1 MOL1        -0.5519
      49    H23     18.458351   23.021545   24.897537 H          1 MOL1         0.3769
      50    C15     17.315008   22.159245   22.932186 C.3        1 MOL1         0.1053
      51    H24     18.142258   21.465342   22.733162 H          1 MOL1         0.0783
      52    O13     16.614216   21.768232   24.118629 O.3        1 MOL1        -0.5519
      53    H25     15.981672   21.058323   23.850799 H          1 MOL1         0.3769
      54    C16     16.349292   22.108098   21.723481 C.3        1 MOL1         0.1018
      55    H26     15.393364   22.557670   22.024424 H          1 MOL1         0.0783
      56    C17     16.909138   22.831618   20.464346 C.3        1 MOL1         0.1043
      57    H27     17.701217   22.204471   20.034124 H          1 MOL1         0.0783
      58    O14     17.455280   24.124824   20.829843 O.3        1 MOL1        -0.3740
      59    C18     15.852397   23.065768   19.361848 C.3        1 MOL1         0.0138
      60    H28     15.514559   22.095331   18.975135 H          1 MOL1         0.0794
      61    H29     16.326304   23.600546   18.527786 H          1 MOL1         0.0794
      62    O15     14.739882   23.813220   19.862096 O.3        1 MOL1        -0.5486
      63    H30     15.108814   24.655240   20.210541 H          1 MOL1         0.3769
      64    C19     23.525668   22.727113   20.583440 C.3        1 MOL1         0.2972
      65    H31     24.573286   22.797491   20.263705 H          1 MOL1         0.0751
      66    O16     23.192351   21.386926   21.005847 O.3        1 MOL1        -0.3740
      67    C20     23.218879   23.737815   21.722002 C.3        1 MOL1         0.1003
      68    H32     23.357413   24.744164   21.306672 H          1 MOL1         0.0783
      69    O17     24.126107   23.568759   22.821584 O.3        1 MOL1        -0.5519
      70    H33     23.893632   22.708994   23.252437 H          1 MOL1         0.3769
      71    C21     21.736809   23.610977   22.166645 C.3        1 MOL1         0.1053
      72    H34     21.604868   22.621583   22.626261 H          1 MOL1         0.0783
      73    O18     21.402639   24.630274   23.116408 O.3        1 MOL1        -0.5519
      74    H35     20.579948   24.321880   23.569950 H          1 MOL1         0.3769
      75    C22     20.776767   23.711021   20.948374 C.3        1 MOL1         0.1018
      76    H36     20.682520   24.759393   20.635422 H          1 MOL1         0.0783
      77    C23     21.240071   22.865380   19.733183 C.3        1 MOL1         0.1043
      78    H37     21.043872   21.812922   19.965348 H          1 MOL1         0.0783
      79    O19     22.654361   23.061488   19.484791 O.3        1 MOL1        -0.3740
      80    C24     20.480821   23.205221   18.432009 C.3        1 MOL1         0.0138
      81    H38     19.406668   23.043393   18.590045 H          1 MOL1         0.0794
      82    H39     20.805824   22.512302   17.644341 H          1 MOL1         0.0794
      83    O20     20.723084   24.557948   18.034505 O.3        1 MOL1        -0.5486
      84    H40     21.700306   24.656965   17.992645 H          1 MOL1         0.3769
      85    C25     24.829510   17.789819   22.226480 C.3        1 MOL1         0.2972
      86    H41     25.472325   16.976733   22.586902 H          1 MOL1         0.0751
      87    O21     23.589732   17.285410   21.687944 O.3        1 MOL1        -0.3740
      88    C26     24.514073   18.770842   23.385444 C.3        1 MOL1         0.1003
      89    H42     25.470160   19.178242   23.738566 H          1 MOL1         0.0783
      90    O22     23.879206   18.063675   24.464874 O.3        1 MOL1        -0.5519
      91    H43     23.315371   18.705770   24.969487 H          1 MOL1         0.3769
      92    C27     23.652038   19.960364   22.888307 C.3        1 MOL1         0.1053
      93    H44     22.651126   19.579067   22.651518 H          1 MOL1         0.0783
      94    O23     23.571292   20.963345   23.909248 O.3        1 MOL1        -0.5519
      95    H45     22.996206   20.597508   24.630121 H          1 MOL1         0.3769
      96    C28     24.243975   20.605584   21.606380 C.3        1 MOL1         0.1018
      97    H46     25.102114   21.227915   21.892622 H          1 MOL1         0.0783
      98    C29     24.689283   19.558136   20.549833 C.3        1 MOL1         0.1043
      99    H47     23.788348   19.109244   20.111075 H          1 MOL1         0.0783
     100    O24     25.493166   18.532871   21.182890 O.3        1 MOL1        -0.3740
     101    C30     25.517178   20.159947   19.392670 C.3        1 MOL1         0.0138
     102    H48     24.886348   20.858556   18.827107 H          1 MOL1         0.0794
     103    H49     25.803675   19.351211   18.707035 H          1 MOL1         0.0794
     104    O25     26.681541   20.831462   19.882365 O.3        1 MOL1        -0.5486
     105    H50     27.181116   20.167040   20.407193 H          1 MOL1         0.3769
     106    C31     21.435473   13.772312   21.250636 C.3        1 MOL1         0.2972
     107    H51     21.096249   12.745522   21.065411 H          1 MOL1         0.0751
     108    O26     20.331343   14.679237   21.442114 O.3        1 MOL1        -0.3740
     109    C32     22.327861   13.820999   22.515235 C.3        1 MOL1         0.1003
     110    H52     23.198276   13.178373   22.329475 H          1 MOL1         0.0783
     111    O27     21.622706   13.340831   23.668563 O.3        1 MOL1        -0.5519
     112    H53     22.208217   13.566170   24.426331 H          1 MOL1         0.3769
     113    C33     22.840939   15.256862   22.773153 C.3        1 MOL1         0.1053
     114    H54     21.977020   15.881754   23.037247 H          1 MOL1         0.0783
     115    O28     23.772100   15.233598   23.861291 O.3        1 MOL1        -0.5519
     116    H55     23.858751   16.172061   24.164354 H          1 MOL1         0.3769
     117    C34     23.501209   15.859587   21.503161 C.3        1 MOL1         0.1018
     118    H56     24.491528   15.410179   21.351214 H          1 MOL1         0.0783
     119    C35     22.646954   15.633157   20.225416 C.3        1 MOL1         0.1043
     120    H57     21.764608   16.284286   20.273325 H          1 MOL1         0.0783
     121    O29     22.227030   14.248765   20.143036 O.3        1 MOL1        -0.3740
     122    C36     23.411944   15.966473   18.925377 C.3        1 MOL1         0.0138
     123    H58     23.741467   17.013059   18.959922 H          1 MOL1         0.0794
     124    H59     22.723736   15.865082   18.075630 H          1 MOL1         0.0794
     125    O30     24.538485   15.101246   18.756458 O.3        1 MOL1        -0.5486
     126    H60     24.189491   14.185248   18.832909 H          1 MOL1         0.3769
     127    C1      20.702665   19.633315   25.651151 C.2        1 MOL1         0.6168
     128    O1      21.918666   19.659960   25.699150 O.co2      1 MOL1        -0.6703
     129    O2      19.989148   19.496667   26.625157 O.co2      1 MOL1        -0.6703
     130    C2      20.042042   19.759610   24.282459 C.3        1 MOL1        -0.1963
     131    H1      20.637625   20.452792   23.679102 H          1 MOL1         0.0750
     132    H2      19.059281   20.220527   24.428487 H          1 MOL1         0.0750
     133    C3      19.882879   18.394076   23.566351 C.3        1 MOL1        -0.1860
     134    H3      20.852251   17.879201   23.531636 H          1 MOL1         0.0752
     135    H4      19.218317   17.761122   24.170150 H          1 MOL1         0.0752
     136    C4      19.302657   18.512401   22.138018 C.3        1 MOL1        -0.1858
     137    H5      18.427855   19.174533   22.140286 H          1 MOL1         0.0752
     138    H6      18.945085   17.522585   21.831553 H          1 MOL1         0.0752
     139    C5      20.341102   18.999529   21.103754 C.3        1 MOL1        -0.1858
     140    H7      20.702540   19.999343   21.373852 H          1 MOL1         0.0752
     141    H8      21.208399   18.330253   21.132521 H          1 MOL1         0.0752
     142    C6      19.763140   19.032991   19.672839 C.3        1 MOL1        -0.1858
     143    H9      19.056884   19.870111   19.588694 H          1 MOL1         0.0752
     144    H10     19.194596   18.114734   19.480940 H          1 MOL1         0.0752
     145    C7      20.868959   19.159668   18.603846 C.3        1 MOL1        -0.1834
     146    H11     21.509505   20.024473   18.814903 H          1 MOL1         0.0752
     147    H12     21.517812   18.275708   18.643111 H          1 MOL1         0.0752
     148    C8      20.272319   19.291738   17.189157 C.3        1 MOL1        -0.2849
     149    H13     19.636133   20.182901   17.113053 H          1 MOL1         0.0764
     150    H14     21.069630   19.378682   16.439930 H          1 MOL1         0.0764
     151    H15     19.663577   18.413769   16.937120 H          1 MOL1         0.0764
@<TRIPOS>BOND
    1     1     2    1
    2     1     3    1
    3     1     4    1
    4     4     5    1
    5     4     6    1
    6     6     7    1
    7     4     8    1
    8     8     9    1
    9     8    10    1
   10    10    11    1
   11     8    12    1
   12    12    13    1
   13    12    14    1
   14    14    15    1
   15     1    16    1
   16    14    16    1
   17    14    17    1
   18    17    18    1
   19    17    19    1
   20    17    20    1
   21    20    21    1
   22    22    23    1
   23    22    24    1
   24    22    25    1
   25    25    26    1
   26    25    27    1
   27    27    28    1
   28    25    29    1
   29    29    30    1
   30    29    31    1
   31    31    32    1
   32     3    33    1
   33    29    33    1
   34    33    34    1
   35    33    35    1
   36    35    36    1
   37    22    37    1
   38    35    37    1
   39    35    38    1
   40    38    39    1
   41    38    40    1
   42    38    41    1
   43    41    42    1
   44    43    44    1
   45    43    45    1
   46    43    46    1
   47    46    47    1
   48    46    48    1
   49    48    49    1
   50    46    50    1
   51    50    51    1
   52    50    52    1
   53    52    53    1
   54    24    54    1
   55    50    54    1
   56    54    55    1
   57    54    56    1
   58    56    57    1
   59    43    58    1
   60    56    58    1
   61    56    59    1
   62    59    60    1
   63    59    61    1
   64    59    62    1
   65    62    63    1
   66    64    65    1
   67    64    66    1
   68    64    67    1
   69    67    68    1
   70    67    69    1
   71    69    70    1
   72    67    71    1
   73    71    72    1
   74    71    73    1
   75    73    74    1
   76    45    75    1
   77    71    75    1
   78    75    76    1
   79    75    77    1
   80    77    78    1
   81    64    79    1
   82    77    79    1
   83    77    80    1
   84    80    81    1
   85    80    82    1
   86    80    83    1
   87    83    84    1
   88    85    86    1
   89    85    87    1
   90    85    88    1
   91    88    89    1
   92    88    90    1
   93    90    91    1
   94    88    92    1
   95    92    93    1
   96    92    94    1
   97    94    95    1
   98    66    96    1
   99    92    96    1
  100    96    97    1
  101    96    98    1
  102    98    99    1
  103    85   100    1
  104    98   100    1
  105    98   101    1
  106   101   102    1
  107   101   103    1
  108   101   104    1
  109   104   105    1
  110   106   107    1
  111    12   108    1
  112   106   108    1
  113   106   109    1
  114   109   110    1
  115   109   111    1
  116   111   112    1
  117   109   113    1
  118   113   114    1
  119   113   115    1
  120   115   116    1
  121    87   117    1
  122   113   117    1
  123   117   118    1
  124   117   119    1
  125   119   120    1
  126   106   121    1
  127   119   121    1
  128   119   122    1
  129   122   123    1
  130   122   124    1
  131   122   125    1
  132   125   126    1
  133   127   128    1
  134   127   129    2
  135   127   130    1
  136   130   131    1
  137   130   132    1
  138   130   133    1
  139   133   134    1
  140   133   135    1
  141   133   136    1
  142   136   137    1
  143   136   138    1
  144   136   139    1
  145   139   140    1
  146   139   141    1
  147   139   142    1
  148   142   143    1
  149   142   144    1
  150   142   145    1
  151   145   146    1
  152   145   147    1
  153   145   148    1
  154   148   149    1
  155   148   150    1
  156   148   151    1
@<TRIPOS>SUBSTRUCTURE
       1 MOL1            1 RESIDUE      1      MOL     
       2 MOL1          151 RESIDUE      1      MOL     
@<SCITEGIC>MOL_PROPERTY
VM2 Rank
SciTegic.value.IntegerValue
5

@<SCITEGIC>MOL_PROPERTY
Conf_Id
SciTegic.value.IntegerValue
25940

@<SCITEGIC>MOL_PROPERTY
Probability
SciTegic.value.DoubleValue
2.58

@<SCITEGIC>MOL_PROPERTY
Sum Probability
SciTegic.value.DoubleValue
17.61

@<SCITEGIC>MOL_PROPERTY
Delta G
SciTegic.value.DoubleValue
0.516

@<SCITEGIC>MOL_PROPERTY
G
SciTegic.value.DoubleValue
505.339

@<SCITEGIC>MOL_PROPERTY
E
SciTegic.value.DoubleValue
308.235

@<SCITEGIC>MOL_PROPERTY
-TS
SciTegic.value.DoubleValue
197.104

@<SCITEGIC>MOL_PROPERTY
U+W
SciTegic.value.DoubleValue
174.992

@<SCITEGIC>MOL_PROPERTY
U
SciTegic.value.DoubleValue
248.925

@<SCITEGIC>MOL_PROPERTY
W
SciTegic.value.DoubleValue
-73.932

@<SCITEGIC>MOL_PROPERTY
W(PB)
SciTegic.value.DoubleValue
-80.122

@<SCITEGIC>MOL_PROPERTY
W(SA)
SciTegic.value.DoubleValue
6.190

@<SCITEGIC>MOL_PROPERTY
Valence
SciTegic.value.DoubleValue
150.622

@<SCITEGIC>MOL_PROPERTY
Coulomb
SciTegic.value.DoubleValue
125.648

@<SCITEGIC>MOL_PROPERTY
VdW
SciTegic.value.DoubleValue
-27.346

@<SCITEGIC>MOL_PROPERTY
VdW6
SciTegic.value.DoubleValue
-184.686

@<SCITEGIC>MOL_PROPERTY
VdW12
SciTegic.value.DoubleValue
157.340

@<SCITEGIC>MOL_PROPERTY
Bond
SciTegic.value.DoubleValue
4.460

@<SCITEGIC>MOL_PROPERTY
Angle
SciTegic.value.DoubleValue
11.471

@<SCITEGIC>MOL_PROPERTY
Pdih
SciTegic.value.DoubleValue
134.690

@<SCITEGIC>MOL_PROPERTY
Idih
SciTegic.value.DoubleValue
0.000

@<SCITEGIC>MOL_PROPERTY
Tether
SciTegic.value.DoubleValue
0.000

@<TRIPOS>MOLECULE
CD_guest-8_vm2_single.mol2 : vm2 host+ligand conformer 6
         151         156           2
SMALL
USER_CHARGES
 
@<TRIPOS>ATOM
       1    C1      16.250081   15.060693   21.123083 C.3        1 MOL1         0.2972
       2    H1      15.174313   14.893895   20.986832 H          1 MOL1         0.0751
       3    O1      16.561437   16.461592   21.261595 O.3        1 MOL1        -0.3740
       4    C2      16.742781   14.315134   22.388833 C.3        1 MOL1         0.1003
       5    H2      16.548539   13.245762   22.234194 H          1 MOL1         0.0783
       6    O2      16.044166   14.755691   23.561441 O.3        1 MOL1        -0.5519
       7    H3      16.545172   14.360176   24.310001 H          1 MOL1         0.3769
       8    C3      18.265352   14.496766   22.582569 C.3        1 MOL1         0.1053
       9    H4      18.458321   15.549460   22.828214 H          1 MOL1         0.0783
      10    O3      18.714773   13.656812   23.653242 O.3        1 MOL1        -0.5519
      11    H5      19.703645   13.690390   23.644457 H          1 MOL1         0.3769
      12    C4      19.041260   14.146681   21.289802 C.3        1 MOL1         0.1018
      13    H6      19.061431   13.054101   21.183639 H          1 MOL1         0.0783
      14    C5      18.417621   14.783192   20.017549 C.3        1 MOL1         0.1043
      15    H7      18.606291   15.863881   20.046862 H          1 MOL1         0.0783
      16    O4      16.987716   14.546687   19.994552 O.3        1 MOL1        -0.3740
      17    C6      19.023961   14.245589   18.699416 C.3        1 MOL1         0.0138
      18    H8      20.049276   14.627743   18.607320 H          1 MOL1         0.0794
      19    H9      18.447915   14.652124   17.857445 H          1 MOL1         0.0794
      20    O5      19.033200   12.812775   18.651926 O.3        1 MOL1        -0.5486
      21    H10     19.406717   12.546546   17.783921 H          1 MOL1         0.3769
      22    C7      14.918783   20.270670   20.909632 C.3        1 MOL1         0.2972
      23    H11     14.263868   21.123368   20.688715 H          1 MOL1         0.0751
      24    O6      16.226729   20.703755   21.327721 O.3        1 MOL1        -0.3740
      25    C8      14.305575   19.380248   22.023038 C.3        1 MOL1         0.1003
      26    H12     13.324084   19.042309   21.665887 H          1 MOL1         0.0783
      27    O7      14.136757   20.107051   23.247621 O.3        1 MOL1        -0.5519
      28    H13     13.855248   19.428988   23.902352 H          1 MOL1         0.3769
      29    C9      15.174503   18.126320   22.280878 C.3        1 MOL1         0.1053
      30    H14     16.123019   18.452120   22.730298 H          1 MOL1         0.0783
      31    O8      14.485824   17.246367   23.177880 O.3        1 MOL1        -0.5519
      32    H15     15.076425   16.464300   23.317636 H          1 MOL1         0.3769
      33    C10     15.496625   17.382751   20.961623 C.3        1 MOL1         0.1018
      34    H16     14.592611   16.871096   20.605866 H          1 MOL1         0.0783
      35    C11     16.002445   18.344773   19.855255 C.3        1 MOL1         0.1043
      36    H17     16.997522   18.709230   20.138315 H          1 MOL1         0.0783
      37    O9      15.084571   19.458886   19.727956 O.3        1 MOL1        -0.3740
      38    C12     16.117338   17.673581   18.468952 C.3        1 MOL1         0.0138
      39    H18     16.822992   16.835372   18.531223 H          1 MOL1         0.0794
      40    H19     16.533956   18.400890   17.759328 H          1 MOL1         0.0794
      41    O10     14.841255   17.212114   18.015700 O.3        1 MOL1        -0.5486
      42    H20     14.240469   17.988837   18.061476 H          1 MOL1         0.3769
      43    C13     18.494301   24.093384   21.896540 C.3        1 MOL1         0.2972
      44    H21     18.901008   25.095465   22.083016 H          1 MOL1         0.0751
      45    O11     19.509525   23.178949   21.439932 O.3        1 MOL1        -0.3740
      46    C14     17.859776   23.523623   23.187703 C.3        1 MOL1         0.1003
      47    H22     17.027629   24.183943   23.464470 H          1 MOL1         0.0783
      48    O12     18.806907   23.484839   24.264139 O.3        1 MOL1        -0.5519
      49    H23     18.378266   22.923974   24.949161 H          1 MOL1         0.3769
      50    C15     17.282386   22.113032   22.932715 C.3        1 MOL1         0.1053
      51    H24     18.119577   21.430929   22.734377 H          1 MOL1         0.0783
      52    O13     16.554538   21.681991   24.088567 O.3        1 MOL1        -0.5519
      53    H25     15.919947   20.991323   23.779321 H          1 MOL1         0.3769
      54    C16     16.348318   22.089610   21.698395 C.3        1 MOL1         0.1018
      55    H26     15.380788   22.522570   21.986478 H          1 MOL1         0.0783
      56    C17     16.935543   22.853182   20.475904 C.3        1 MOL1         0.1043
      57    H27     17.745703   22.245472   20.051560 H          1 MOL1         0.0783
      58    O14     17.457983   24.140344   20.892956 O.3        1 MOL1        -0.3740
      59    C18     15.909451   23.108692   19.349448 C.3        1 MOL1         0.0138
      60    H28     15.597988   22.146806   18.921514 H          1 MOL1         0.0794
      61    H29     16.400748   23.676511   18.547902 H          1 MOL1         0.0794
      62    O15     14.771307   23.824285   19.838352 O.3        1 MOL1        -0.5486
      63    H30     15.116510   24.660767   20.222570 H          1 MOL1         0.3769
      64    C19     23.531500   22.818077   20.694602 C.3        1 MOL1         0.2972
      65    H31     24.580675   22.911461   20.388177 H          1 MOL1         0.0751
      66    O16     23.208593   21.459402   21.066616 O.3        1 MOL1        -0.3740
      67    C20     23.203250   23.791883   21.858121 C.3        1 MOL1         0.1003
      68    H32     23.325176   24.811211   21.470010 H          1 MOL1         0.0783
      69    O17     24.112842   23.610859   22.953174 O.3        1 MOL1        -0.5519
      70    H33     23.884387   22.744079   23.371687 H          1 MOL1         0.3769
      71    C21     21.720954   23.626994   22.288832 C.3        1 MOL1         0.1053
      72    H34     21.599905   22.619316   22.709889 H          1 MOL1         0.0783
      73    O18     21.362498   24.604435   23.273099 O.3        1 MOL1        -0.5519
      74    H35     20.532962   24.273670   23.697508 H          1 MOL1         0.3769
      75    C22     20.770952   23.759217   21.065798 C.3        1 MOL1         0.1018
      76    H36     20.667337   24.816992   20.789511 H          1 MOL1         0.0783
      77    C23     21.254224   22.962646   19.825141 C.3        1 MOL1         0.1043
      78    H37     21.065595   21.900990   20.017299 H          1 MOL1         0.0783
      79    O19     22.669262   23.179522   19.598049 O.3        1 MOL1        -0.3740
      80    C24     20.504844   23.342446   18.529300 C.3        1 MOL1         0.0138
      81    H38     19.430626   23.166857   18.670597 H          1 MOL1         0.0794
      82    H39     20.842976   22.680406   17.720798 H          1 MOL1         0.0794
      83    O20     20.739791   24.710358   18.182654 O.3        1 MOL1        -0.5486
      84    H40     21.716498   24.818330   18.152918 H          1 MOL1         0.3769
      85    C25     24.825977   17.834011   22.256709 C.3        1 MOL1         0.2972
      86    H41     25.471735   17.019773   22.609189 H          1 MOL1         0.0751
      87    O21     23.585578   17.332434   21.719994 O.3        1 MOL1        -0.3740
      88    C26     24.510531   18.804227   23.422976 C.3        1 MOL1         0.1003
      89    H42     25.466928   19.204147   23.783665 H          1 MOL1         0.0783
      90    O22     23.870311   18.085878   24.492158 O.3        1 MOL1        -0.5519
      91    H43     23.294264   18.720475   24.992342 H          1 MOL1         0.3769
      92    C27     23.654995   20.002355   22.933402 C.3        1 MOL1         0.1053
      93    H44     22.652583   19.628104   22.690944 H          1 MOL1         0.0783
      94    O23     23.576098   20.992136   23.966281 O.3        1 MOL1        -0.5519
      95    H45     22.990107   20.622027   24.676439 H          1 MOL1         0.3769
      96    C28     24.251433   20.656295   21.655700 C.3        1 MOL1         0.1018
      97    H46     25.123310   21.260890   21.939080 H          1 MOL1         0.0783
      98    C29     24.671148   19.609396   20.589097 C.3        1 MOL1         0.1043
      99    H47     23.763199   19.171172   20.153488 H          1 MOL1         0.0783
     100    O24     25.482845   18.586902   21.217282 O.3        1 MOL1        -0.3740
     101    C30     25.505255   20.217229   19.443085 C.3        1 MOL1         0.0138
     102    H48     26.436563   20.631796   19.851566 H          1 MOL1         0.0794
     103    H49     24.943772   21.038321   18.978589 H          1 MOL1         0.0794
     104    O25     25.787419   19.213643   18.465695 O.3        1 MOL1        -0.5486
     105    H50     26.112602   18.430033   18.964138 H          1 MOL1         0.3769
     106    C31     21.465224   13.811307   21.221269 C.3        1 MOL1         0.2972
     107    H51     21.131126   12.787349   21.012000 H          1 MOL1         0.0751
     108    O26     20.357495   14.703701   21.453342 O.3        1 MOL1        -0.3740
     109    C32     22.372583   13.838080   22.476364 C.3        1 MOL1         0.1003
     110    H52     23.249375   13.212437   22.264565 H          1 MOL1         0.0783
     111    O27     21.687800   13.321720   23.626327 O.3        1 MOL1        -0.5519
     112    H53     22.281453   13.533322   24.381742 H          1 MOL1         0.3769
     113    C33     22.866953   15.275053   22.762862 C.3        1 MOL1         0.1053
     114    H54     21.995678   15.882001   23.043874 H          1 MOL1         0.0783
     115    O28     23.803709   15.246876   23.846308 O.3        1 MOL1        -0.5519
     116    H55     23.877089   16.181442   24.164737 H          1 MOL1         0.3769
     117    C34     23.510344   15.911821   21.501486 C.3        1 MOL1         0.1018
     118    H56     24.503998   15.476160   21.332426 H          1 MOL1         0.0783
     119    C35     22.648870   15.707601   20.224885 C.3        1 MOL1         0.1043
     120    H57     21.761821   16.350691   20.292541 H          1 MOL1         0.0783
     121    O29     22.237980   14.322413   20.115058 O.3        1 MOL1        -0.3740
     122    C36     23.405310   16.075020   18.928474 C.3        1 MOL1         0.0138
     123    H58     23.719416   17.125769   18.979378 H          1 MOL1         0.0794
     124    H59     22.716625   15.978494   18.078640 H          1 MOL1         0.0794
     125    O30     24.544646   15.230003   18.741944 O.3        1 MOL1        -0.5486
     126    H60     24.209147   14.307683   18.796991 H          1 MOL1         0.3769
     127    C1      20.673720   19.609219   25.641444 C.2        1 MOL1         0.6168
     128    O1      19.951540   19.438182   26.603564 O.co2      1 MOL1        -0.6703
     129    O2      21.887777   19.668192   25.706384 O.co2      1 MOL1        -0.6703
     130    C2      20.027615   19.739204   24.266176 C.3        1 MOL1        -0.1963
     131    H1      20.607463   20.463431   23.684282 H          1 MOL1         0.0750
     132    H2      19.027942   20.163758   24.407572 H          1 MOL1         0.0750
     133    C3      19.923679   18.383320   23.522022 C.3        1 MOL1        -0.1860
     134    H3      20.911670   17.905622   23.483102 H          1 MOL1         0.0752
     135    H4      19.279815   17.714240   24.109018 H          1 MOL1         0.0752
     136    C4      19.347042   18.509020   22.092732 C.3        1 MOL1        -0.1858
     137    H5      18.445426   19.134372   22.104569 H          1 MOL1         0.0752
     138    H6      19.032124   17.512877   21.760653 H          1 MOL1         0.0752
     139    C5      20.369570   19.060304   21.074936 C.3        1 MOL1        -0.1858
     140    H7      20.682849   20.071126   21.363585 H          1 MOL1         0.0752
     141    H8      21.266865   18.431971   21.098882 H          1 MOL1         0.0752
     142    C6      19.799168   19.086459   19.640805 C.3        1 MOL1        -0.1858
     143    H9      19.056626   19.892180   19.563352 H          1 MOL1         0.0752
     144    H10     19.274330   18.144800   19.434294 H          1 MOL1         0.0752
     145    C7      20.902487   19.276644   18.578673 C.3        1 MOL1        -0.1834
     146    H11     21.511608   20.158613   18.809593 H          1 MOL1         0.0752
     147    H12     21.583358   18.416440   18.600746 H          1 MOL1         0.0752
     148    C8      20.304805   19.418706   17.165343 C.3        1 MOL1        -0.2849
     149    H13     19.640829   20.290697   17.105904 H          1 MOL1         0.0764
     150    H14     21.100891   19.546677   16.420653 H          1 MOL1         0.0764
     151    H15     19.725203   18.527072   16.893381 H          1 MOL1         0.0764
@<TRIPOS>BOND
    1     1     2    1
    2     1     3    1
    3     1     4    1
    4     4     5    1
    5     4     6    1
    6     6     7    1
    7     4     8    1
    8     8     9    1
    9     8    10    1
   10    10    11    1
   11     8    12    1
   12    12    13    1
   13    12    14    1
   14    14    15    1
   15     1    16    1
   16    14    16    1
   17    14    17    1
   18    17    18    1
   19    17    19    1
   20    17    20    1
   21    20    21    1
   22    22    23    1
   23    22    24    1
   24    22    25    1
   25    25    26    1
   26    25    27    1
   27    27    28    1
   28    25    29    1
   29    29    30    1
   30    29    31    1
   31    31    32    1
   32     3    33    1
   33    29    33    1
   34    33    34    1
   35    33    35    1
   36    35    36    1
   37    22    37    1
   38    35    37    1
   39    35    38    1
   40    38    39    1
   41    38    40    1
   42    38    41    1
   43    41    42    1
   44    43    44    1
   45    43    45    1
   46    43    46    1
   47    46    47    1
   48    46    48    1
   49    48    49    1
   50    46    50    1
   51    50    51    1
   52    50    52    1
   53    52    53    1
   54    24    54    1
   55    50    54    1
   56    54    55    1
   57    54    56    1
   58    56    57    1
   59    43    58    1
   60    56    58    1
   61    56    59    1
   62    59    60    1
   63    59    61    1
   64    59    62    1
   65    62    63    1
   66    64    65    1
   67    64    66    1
   68    64    67    1
   69    67    68    1
   70    67    69    1
   71    69    70    1
   72    67    71    1
   73    71    72    1
   74    71    73    1
   75    73    74    1
   76    45    75    1
   77    71    75    1
   78    75    76    1
   79    75    77    1
   80    77    78    1
   81    64    79    1
   82    77    79    1
   83    77    80    1
   84    80    81    1
   85    80    82    1
   86    80    83    1
   87    83    84    1
   88    85    86    1
   89    85    87    1
   90    85    88    1
   91    88    89    1
   92    88    90    1
   93    90    91    1
   94    88    92    1
   95    92    93    1
   96    92    94    1
   97    94    95    1
   98    66    96    1
   99    92    96    1
  100    96    97    1
  101    96    98    1
  102    98    99    1
  103    85   100    1
  104    98   100    1
  105    98   101    1
  106   101   102    1
  107   101   103    1
  108   101   104    1
  109   104   105    1
  110   106   107    1
  111    12   108    1
  112   106   108    1
  113   106   109    1
  114   109   110    1
  115   109   111    1
  116   111   112    1
  117   109   113    1
  118   113   114    1
  119   113   115    1
  120   115   116    1
  121    87   117    1
  122   113   117    1
  123   117   118    1
  124   117   119    1
  125   119   120    1
  126   106   121    1
  127   119   121    1
  128   119   122    1
  129   122   123    1
  130   122   124    1
  131   122   125    1
  132   125   126    1
  133   127   128    1
  134   127   129    2
  135   127   130    1
  136   130   131    1
  137   130   132    1
  138   130   133    1
  139   133   134    1
  140   133   135    1
  141   133   136    1
  142   136   137    1
  143   136   138    1
  144   136   139    1
  145   139   140    1
  146   139   141    1
  147   139   142    1
  148   142   143    1
  149   142   144    1
  150   142   145    1
  151   145   146    1
  152   145   147    1
  153   145   148    1
  154   148   149    1
  155   148   150    1
  156   148   151    1
@<TRIPOS>SUBSTRUCTURE
       1 MOL1            1 RESIDUE      1      MOL     
       2 MOL1          151 RESIDUE      1      MOL     
@<SCITEGIC>MOL_PROPERTY
VM2 Rank
SciTegic.value.IntegerValue
6

@<SCITEGIC>MOL_PROPERTY
Conf_Id
SciTegic.value.IntegerValue
22757

@<SCITEGIC>MOL_PROPERTY
Probability
SciTegic.value.DoubleValue
2.22

@<SCITEGIC>MOL_PROPERTY
Sum Probability
SciTegic.value.DoubleValue
19.83

@<SCITEGIC>MOL_PROPERTY
Delta G
SciTegic.value.DoubleValue
0.607

@<SCITEGIC>MOL_PROPERTY
G
SciTegic.value.DoubleValue
505.430

@<SCITEGIC>MOL_PROPERTY
E
SciTegic.value.DoubleValue
308.707

@<SCITEGIC>MOL_PROPERTY
-TS
SciTegic.value.DoubleValue
196.723

@<SCITEGIC>MOL_PROPERTY
U+W
SciTegic.value.DoubleValue
175.465

@<SCITEGIC>MOL_PROPERTY
U
SciTegic.value.DoubleValue
249.058

@<SCITEGIC>MOL_PROPERTY
W
SciTegic.value.DoubleValue
-73.593

@<SCITEGIC>MOL_PROPERTY
W(PB)
SciTegic.value.DoubleValue
-79.772

@<SCITEGIC>MOL_PROPERTY
W(SA)
SciTegic.value.DoubleValue
6.179

@<SCITEGIC>MOL_PROPERTY
Valence
SciTegic.value.DoubleValue
151.276

@<SCITEGIC>MOL_PROPERTY
Coulomb
SciTegic.value.DoubleValue
125.452

@<SCITEGIC>MOL_PROPERTY
VdW
SciTegic.value.DoubleValue
-27.669

@<SCITEGIC>MOL_PROPERTY
VdW6
SciTegic.value.DoubleValue
-184.603

@<SCITEGIC>MOL_PROPERTY
VdW12
SciTegic.value.DoubleValue
156.933

@<SCITEGIC>MOL_PROPERTY
Bond
SciTegic.value.DoubleValue
4.452

@<SCITEGIC>MOL_PROPERTY
Angle
SciTegic.value.DoubleValue
11.562

@<SCITEGIC>MOL_PROPERTY
Pdih
SciTegic.value.DoubleValue
135.260

@<SCITEGIC>MOL_PROPERTY
Idih
SciTegic.value.DoubleValue
0.001

@<SCITEGIC>MOL_PROPERTY
Tether
SciTegic.value.DoubleValue
0.000

@<TRIPOS>MOLECULE
CD_guest-8_vm2_single.mol2 : vm2 host+ligand conformer 7
         151         156           2
SMALL
USER_CHARGES
 
@<TRIPOS>ATOM
       1    C1      16.254718   15.056664   21.140507 C.3        1 MOL1         0.2972
       2    H1      15.176942   14.892595   21.017143 H          1 MOL1         0.0751
       3    O1      16.572644   16.457393   21.262003 O.3        1 MOL1        -0.3740
       4    C2      16.758113   14.319475   22.406675 C.3        1 MOL1         0.1003
       5    H2      16.556527   13.249954   22.263091 H          1 MOL1         0.0783
       6    O2      16.074131   14.772389   23.583050 O.3        1 MOL1        -0.5519
       7    H3      16.580240   14.379142   24.329342 H          1 MOL1         0.3769
       8    C3      18.283778   14.493771   22.583216 C.3        1 MOL1         0.1053
       9    H4      18.483753   15.545763   22.826344 H          1 MOL1         0.0783
      10    O3      18.737046   13.652543   23.650828 O.3        1 MOL1        -0.5519
      11    H5      19.725965   13.684421   23.638487 H          1 MOL1         0.3769
      12    C4      19.047854   14.139250   21.283567 C.3        1 MOL1         0.1018
      13    H6      19.073067   13.046451   21.180239 H          1 MOL1         0.0783
      14    C5      18.409163   14.768494   20.014845 C.3        1 MOL1         0.1043
      15    H7      18.605544   15.848438   20.026724 H          1 MOL1         0.0783
      16    O4      16.979470   14.528970   20.009647 O.3        1 MOL1        -0.3740
      17    C6      18.981676   14.200266   18.697584 C.3        1 MOL1         0.0138
      18    H8      20.053990   14.428469   18.642416 H          1 MOL1         0.0794
      19    H9      18.495536   14.708197   17.853975 H          1 MOL1         0.0794
      20    O5      18.771538   12.787572   18.613259 O.3        1 MOL1        -0.5486
      21    H10     17.804275   12.649246   18.722026 H          1 MOL1         0.3769
      22    C7      14.925367   20.265247   20.904130 C.3        1 MOL1         0.2972
      23    H11     14.269177   21.116374   20.680952 H          1 MOL1         0.0751
      24    O6      16.231753   20.701432   21.323794 O.3        1 MOL1        -0.3740
      25    C8      14.312070   19.375085   22.017755 C.3        1 MOL1         0.1003
      26    H12     13.331812   19.034816   21.659429 H          1 MOL1         0.0783
      27    O7      14.139782   20.103152   23.241099 O.3        1 MOL1        -0.5519
      28    H13     13.858248   19.425438   23.896181 H          1 MOL1         0.3769
      29    C9      15.182909   18.123084   22.278714 C.3        1 MOL1         0.1053
      30    H14     16.130221   18.451207   22.728973 H          1 MOL1         0.0783
      31    O8      14.494440   17.243394   23.176117 O.3        1 MOL1        -0.5519
      32    H15     15.089716   16.466444   23.324361 H          1 MOL1         0.3769
      33    C10     15.508012   17.378528   20.960686 C.3        1 MOL1         0.1018
      34    H16     14.604902   16.866521   20.603130 H          1 MOL1         0.0783
      35    C11     16.014756   18.340183   19.854481 C.3        1 MOL1         0.1043
      36    H17     17.008414   18.706934   20.139420 H          1 MOL1         0.0783
      37    O9      15.094888   19.452230   19.723801 O.3        1 MOL1        -0.3740
      38    C12     16.134460   17.667495   18.469288 C.3        1 MOL1         0.0138
      39    H18     16.842964   16.831969   18.534171 H          1 MOL1         0.0794
      40    H19     16.549822   18.395250   17.759379 H          1 MOL1         0.0794
      41    O10     14.861079   17.200471   18.014189 O.3        1 MOL1        -0.5486
      42    H20     14.257397   17.975106   18.056715 H          1 MOL1         0.3769
      43    C13     18.492464   24.095009   21.894096 C.3        1 MOL1         0.2972
      44    H21     18.897507   25.097759   22.080594 H          1 MOL1         0.0751
      45    O11     19.509533   23.181754   21.439257 O.3        1 MOL1        -0.3740
      46    C14     17.857016   23.524959   23.184676 C.3        1 MOL1         0.1003
      47    H22     17.023444   24.184123   23.459910 H          1 MOL1         0.0783
      48    O12     18.802633   23.488166   24.262501 O.3        1 MOL1        -0.5519
      49    H23     18.373812   22.927025   24.947188 H          1 MOL1         0.3769
      50    C15     17.282209   22.113334   22.929638 C.3        1 MOL1         0.1053
      51    H24     18.120730   21.432394   22.732847 H          1 MOL1         0.0783
      52    O13     16.553419   21.681828   24.084723 O.3        1 MOL1        -0.5519
      53    H25     15.920135   20.990196   23.774947 H          1 MOL1         0.3769
      54    C16     16.349960   22.087680   21.693995 C.3        1 MOL1         0.1018
      55    H26     15.381144   22.518822   21.980475 H          1 MOL1         0.0783
      56    C17     16.937462   22.851798   20.471964 C.3        1 MOL1         0.1043
      57    H27     17.749121   22.245249   20.048809 H          1 MOL1         0.0783
      58    O14     17.457357   24.139951   20.889165 O.3        1 MOL1        -0.3740
      59    C18     15.912338   23.105193   19.344153 C.3        1 MOL1         0.0138
      60    H28     15.602996   22.142625   18.916209 H          1 MOL1         0.0794
      61    H29     16.403678   23.673521   18.542994 H          1 MOL1         0.0794
      62    O15     14.772406   23.819082   19.831376 O.3        1 MOL1        -0.5486
      63    H30     15.115735   24.656306   20.215658 H          1 MOL1         0.3769
      64    C19     23.532609   22.823948   20.699625 C.3        1 MOL1         0.2972
      65    H31     24.582197   22.917984   20.394823 H          1 MOL1         0.0751
      66    O16     23.209794   21.464916   21.070404 O.3        1 MOL1        -0.3740
      67    C20     23.202130   23.797089   21.863079 C.3        1 MOL1         0.1003
      68    H32     23.324197   24.816638   21.475590 H          1 MOL1         0.0783
      69    O17     24.110095   23.616010   22.959476 O.3        1 MOL1        -0.5519
      70    H33     23.880826   22.749309   23.377711 H          1 MOL1         0.3769
      71    C21     21.719267   23.631387   22.291498 C.3        1 MOL1         0.1053
      72    H34     21.598089   22.623574   22.712208 H          1 MOL1         0.0783
      73    O18     21.358884   24.608517   23.275368 O.3        1 MOL1        -0.5519
      74    H35     20.528775   24.277403   23.698387 H          1 MOL1         0.3769
      75    C22     20.770943   23.763341   21.067145 C.3        1 MOL1         0.1018
      76    H36     20.666798   24.821151   20.791192 H          1 MOL1         0.0783
      77    C23     21.256572   22.967699   19.826813 C.3        1 MOL1         0.1043
      78    H37     21.068226   21.905826   20.018142 H          1 MOL1         0.0783
      79    O19     22.671830   23.185503   19.601964 O.3        1 MOL1        -0.3740
      80    C24     20.508921   23.347751   18.530049 C.3        1 MOL1         0.0138
      81    H38     19.434594   23.171423   18.669629 H          1 MOL1         0.0794
      82    H39     20.848695   22.686368   17.721698 H          1 MOL1         0.0794
      83    O20     20.743544   24.716001   18.184514 O.3        1 MOL1        -0.5486
      84    H40     21.720229   24.824584   18.156262 H          1 MOL1         0.3769
      85    C25     24.826283   17.840219   22.263708 C.3        1 MOL1         0.2972
      86    H41     25.471696   17.026452   22.617908 H          1 MOL1         0.0751
      87    O21     23.587857   17.337623   21.723324 O.3        1 MOL1        -0.3740
      88    C26     24.506885   18.809814   23.429403 C.3        1 MOL1         0.1003
      89    H42     25.462022   19.210026   23.793096 H          1 MOL1         0.0783
      90    O22     23.863842   18.090667   24.496329 O.3        1 MOL1        -0.5519
      91    H43     23.287508   18.725188   24.996265 H          1 MOL1         0.3769
      92    C27     23.652206   20.007757   22.937953 C.3        1 MOL1         0.1053
      93    H44     22.650602   19.633163   22.692815 H          1 MOL1         0.0783
      94    O23     23.570197   20.997186   23.970939 O.3        1 MOL1        -0.5519
      95    H45     22.982617   20.626610   24.679548 H          1 MOL1         0.3769
      96    C28     24.251631   20.662340   21.661979 C.3        1 MOL1         0.1018
      97    H46     25.122403   21.267397   21.947752 H          1 MOL1         0.0783
      98    C29     24.674772   19.615946   20.596240 C.3        1 MOL1         0.1043
      99    H47     23.768228   19.177251   20.158192 H          1 MOL1         0.0783
     100    O24     25.485484   18.593856   21.226322 O.3        1 MOL1        -0.3740
     101    C30     25.511494   20.224507   19.452526 C.3        1 MOL1         0.0138
     102    H48     26.441559   20.639412   19.863490 H          1 MOL1         0.0794
     103    H49     24.950790   21.045457   18.986843 H          1 MOL1         0.0794
     104    O25     25.796629   19.221345   18.475554 O.3        1 MOL1        -0.5486
     105    H50     26.120545   18.437556   18.974561 H          1 MOL1         0.3769
     106    C31     21.475915   13.812385   21.208322 C.3        1 MOL1         0.2972
     107    H51     21.146062   12.787737   20.995855 H          1 MOL1         0.0751
     108    O26     20.363700   14.702826   21.429012 O.3        1 MOL1        -0.3740
     109    C32     22.376277   13.840894   22.468712 C.3        1 MOL1         0.1003
     110    H52     23.256460   13.218865   22.260268 H          1 MOL1         0.0783
     111    O27     21.689287   13.319961   23.614857 O.3        1 MOL1        -0.5519
     112    H53     22.280041   13.531603   24.372635 H          1 MOL1         0.3769
     113    C33     22.864784   15.278838   22.759633 C.3        1 MOL1         0.1053
     114    H54     21.990072   15.883477   23.034799 H          1 MOL1         0.0783
     115    O28     23.794340   15.252178   23.849314 O.3        1 MOL1        -0.5519
     116    H55     23.866231   16.187210   24.166746 H          1 MOL1         0.3769
     117    C34     23.515593   15.917163   21.503011 C.3        1 MOL1         0.1018
     118    H56     24.510832   15.482684   21.340344 H          1 MOL1         0.0783
     119    C35     22.662758   15.711858   20.220801 C.3        1 MOL1         0.1043
     120    H57     21.774000   16.353182   20.282996 H          1 MOL1         0.0783
     121    O29     22.255687   14.325568   20.108068 O.3        1 MOL1        -0.3740
     122    C36     23.426568   16.081642   18.929376 C.3        1 MOL1         0.0138
     123    H58     23.735879   17.133718   18.981951 H          1 MOL1         0.0794
     124    H59     22.744042   15.981942   18.074925 H          1 MOL1         0.0794
     125    O30     24.570776   15.241422   18.750904 O.3        1 MOL1        -0.5486
     126    H60     24.238617   14.317623   18.800894 H          1 MOL1         0.3769
     127    C1      20.665753   19.606680   25.639536 C.2        1 MOL1         0.6168
     128    O1      19.942014   19.429659   26.599398 O.co2      1 MOL1        -0.6703
     129    O2      21.879299   19.672011   25.707760 O.co2      1 MOL1        -0.6703
     130    C2      20.022542   19.735995   24.262852 C.3        1 MOL1        -0.1963
     131    H1      20.601092   20.463101   23.683224 H          1 MOL1         0.0750
     132    H2      19.020961   20.156618   24.402446 H          1 MOL1         0.0750
     133    C3      19.925311   18.380708   23.516721 C.3        1 MOL1        -0.1860
     134    H3      20.915103   17.906659   23.479671 H          1 MOL1         0.0752
     135    H4      19.282358   17.708647   24.101305 H          1 MOL1         0.0752
     136    C4      19.351704   18.506361   22.086196 C.3        1 MOL1        -0.1858
     137    H5      18.448807   19.129889   22.096762 H          1 MOL1         0.0752
     138    H6      19.039801   17.509878   21.752170 H          1 MOL1         0.0752
     139    C5      20.375225   19.060971   21.071255 C.3        1 MOL1        -0.1858
     140    H7      20.685840   20.072095   21.361756 H          1 MOL1         0.0752
     141    H8      21.273658   18.434335   21.096239 H          1 MOL1         0.0752
     142    C6      19.807951   19.087652   19.635921 C.3        1 MOL1        -0.1858
     143    H9      19.063548   19.891599   19.557920 H          1 MOL1         0.0752
     144    H10     19.286062   18.144864   19.426932 H          1 MOL1         0.0752
     145    C7      20.913273   19.282230   18.576642 C.3        1 MOL1        -0.1834
     146    H11     21.520395   20.164665   18.811010 H          1 MOL1         0.0752
     147    H12     21.595568   18.423089   18.598159 H          1 MOL1         0.0752
     148    C8      20.318466   19.426743   17.162342 C.3        1 MOL1        -0.2849
     149    H13     19.653063   20.297686   17.103569 H          1 MOL1         0.0764
     150    H14     21.115972   19.557951   16.419739 H          1 MOL1         0.0764
     151    H15     19.741074   18.534737   16.886907 H          1 MOL1         0.0764
@<TRIPOS>BOND
    1     1     2    1
    2     1     3    1
    3     1     4    1
    4     4     5    1
    5     4     6    1
    6     6     7    1
    7     4     8    1
    8     8     9    1
    9     8    10    1
   10    10    11    1
   11     8    12    1
   12    12    13    1
   13    12    14    1
   14    14    15    1
   15     1    16    1
   16    14    16    1
   17    14    17    1
   18    17    18    1
   19    17    19    1
   20    17    20    1
   21    20    21    1
   22    22    23    1
   23    22    24    1
   24    22    25    1
   25    25    26    1
   26    25    27    1
   27    27    28    1
   28    25    29    1
   29    29    30    1
   30    29    31    1
   31    31    32    1
   32     3    33    1
   33    29    33    1
   34    33    34    1
   35    33    35    1
   36    35    36    1
   37    22    37    1
   38    35    37    1
   39    35    38    1
   40    38    39    1
   41    38    40    1
   42    38    41    1
   43    41    42    1
   44    43    44    1
   45    43    45    1
   46    43    46    1
   47    46    47    1
   48    46    48    1
   49    48    49    1
   50    46    50    1
   51    50    51    1
   52    50    52    1
   53    52    53    1
   54    24    54    1
   55    50    54    1
   56    54    55    1
   57    54    56    1
   58    56    57    1
   59    43    58    1
   60    56    58    1
   61    56    59    1
   62    59    60    1
   63    59    61    1
   64    59    62    1
   65    62    63    1
   66    64    65    1
   67    64    66    1
   68    64    67    1
   69    67    68    1
   70    67    69    1
   71    69    70    1
   72    67    71    1
   73    71    72    1
   74    71    73    1
   75    73    74    1
   76    45    75    1
   77    71    75    1
   78    75    76    1
   79    75    77    1
   80    77    78    1
   81    64    79    1
   82    77    79    1
   83    77    80    1
   84    80    81    1
   85    80    82    1
   86    80    83    1
   87    83    84    1
   88    85    86    1
   89    85    87    1
   90    85    88    1
   91    88    89    1
   92    88    90    1
   93    90    91    1
   94    88    92    1
   95    92    93    1
   96    92    94    1
   97    94    95    1
   98    66    96    1
   99    92    96    1
  100    96    97    1
  101    96    98    1
  102    98    99    1
  103    85   100    1
  104    98   100    1
  105    98   101    1
  106   101   102    1
  107   101   103    1
  108   101   104    1
  109   104   105    1
  110   106   107    1
  111    12   108    1
  112   106   108    1
  113   106   109    1
  114   109   110    1
  115   109   111    1
  116   111   112    1
  117   109   113    1
  118   113   114    1
  119   113   115    1
  120   115   116    1
  121    87   117    1
  122   113   117    1
  123   117   118    1
  124   117   119    1
  125   119   120    1
  126   106   121    1
  127   119   121    1
  128   119   122    1
  129   122   123    1
  130   122   124    1
  131   122   125    1
  132   125   126    1
  133   127   128    1
  134   127   129    2
  135   127   130    1
  136   130   131    1
  137   130   132    1
  138   130   133    1
  139   133   134    1
  140   133   135    1
  141   133   136    1
  142   136   137    1
  143   136   138    1
  144   136   139    1
  145   139   140    1
  146   139   141    1
  147   139   142    1
  148   142   143    1
  149   142   144    1
  150   142   145    1
  151   145   146    1
  152   145   147    1
  153   145   148    1
  154   148   149    1
  155   148   150    1
  156   148   151    1
@<TRIPOS>SUBSTRUCTURE
       1 MOL1            1 RESIDUE      1      MOL     
       2 MOL1          151 RESIDUE      1      MOL     
@<SCITEGIC>MOL_PROPERTY
VM2 Rank
SciTegic.value.IntegerValue
7

@<SCITEGIC>MOL_PROPERTY
Conf_Id
SciTegic.value.IntegerValue
20866

@<SCITEGIC>MOL_PROPERTY
Probability
SciTegic.value.DoubleValue
2.03

@<SCITEGIC>MOL_PROPERTY
Sum Probability
SciTegic.value.DoubleValue
21.86

@<SCITEGIC>MOL_PROPERTY
Delta G
SciTegic.value.DoubleValue
0.660

@<SCITEGIC>MOL_PROPERTY
G
SciTegic.value.DoubleValue
505.483

@<SCITEGIC>MOL_PROPERTY
E
SciTegic.value.DoubleValue
308.044

@<SCITEGIC>MOL_PROPERTY
-TS
SciTegic.value.DoubleValue
197.439

@<SCITEGIC>MOL_PROPERTY
U+W
SciTegic.value.DoubleValue
174.802

@<SCITEGIC>MOL_PROPERTY
U
SciTegic.value.DoubleValue
246.514

@<SCITEGIC>MOL_PROPERTY
W
SciTegic.value.DoubleValue
-71.712

@<SCITEGIC>MOL_PROPERTY
W(PB)
SciTegic.value.DoubleValue
-77.861

@<SCITEGIC>MOL_PROPERTY
W(SA)
SciTegic.value.DoubleValue
6.149

@<SCITEGIC>MOL_PROPERTY
Valence
SciTegic.value.DoubleValue
151.711

@<SCITEGIC>MOL_PROPERTY
Coulomb
SciTegic.value.DoubleValue
122.377

@<SCITEGIC>MOL_PROPERTY
VdW
SciTegic.value.DoubleValue
-27.574

@<SCITEGIC>MOL_PROPERTY
VdW6
SciTegic.value.DoubleValue
-184.563

@<SCITEGIC>MOL_PROPERTY
VdW12
SciTegic.value.DoubleValue
156.989

@<SCITEGIC>MOL_PROPERTY
Bond
SciTegic.value.DoubleValue
4.443

@<SCITEGIC>MOL_PROPERTY
Angle
SciTegic.value.DoubleValue
11.444

@<SCITEGIC>MOL_PROPERTY
Pdih
SciTegic.value.DoubleValue
135.824

@<SCITEGIC>MOL_PROPERTY
Idih
SciTegic.value.DoubleValue
0.001

@<SCITEGIC>MOL_PROPERTY
Tether
SciTegic.value.DoubleValue
0.000

@<TRIPOS>MOLECULE
CD_guest-8_vm2_single.mol2 : vm2 host+ligand conformer 8
         151         156           2
SMALL
USER_CHARGES
 
@<TRIPOS>ATOM
       1    C1      16.210973   15.052685   21.265800 C.3        1 MOL1         0.2972
       2    H1      15.126918   14.899706   21.193191 H          1 MOL1         0.0751
       3    O1      16.552892   16.452728   21.295723 O.3        1 MOL1        -0.3740
       4    C2      16.753879   14.375971   22.549244 C.3        1 MOL1         0.1003
       5    H2      16.536919   13.302857   22.468658 H          1 MOL1         0.0783
       6    O2      16.118645   14.895918   23.725090 O.3        1 MOL1        -0.5519
       7    H3      16.651267   14.539185   24.471282 H          1 MOL1         0.3769
       8    C3      18.286538   14.541362   22.659649 C.3        1 MOL1         0.1053
       9    H4      18.505090   15.601649   22.840957 H          1 MOL1         0.0783
      10    O3      18.772700   13.750649   23.751124 O.3        1 MOL1        -0.5519
      11    H5      19.759682   13.747617   23.682738 H          1 MOL1         0.3769
      12    C4      18.998848   14.112613   21.353153 C.3        1 MOL1         0.1018
      13    H6      19.017388   13.015546   21.311696 H          1 MOL1         0.0783
      14    C5      18.315757   14.673884   20.075078 C.3        1 MOL1         0.1043
      15    H7      18.523802   15.750288   20.015595 H          1 MOL1         0.0783
      16    O4      16.884236   14.453023   20.139027 O.3        1 MOL1        -0.3740
      17    C6      18.829497   14.023177   18.771736 C.3        1 MOL1         0.0138
      18    H8      19.898899   14.242399   18.656528 H          1 MOL1         0.0794
      19    H9      18.308630   14.481096   17.920234 H          1 MOL1         0.0794
      20    O5      18.612947   12.608973   18.782866 O.3        1 MOL1        -0.5486
      21    H10     17.650039   12.481809   18.935201 H          1 MOL1         0.3769
      22    C7      14.930070   20.262220   20.865166 C.3        1 MOL1         0.2972
      23    H11     14.282038   21.114793   20.624427 H          1 MOL1         0.0751
      24    O6      16.239047   20.695116   21.281044 O.3        1 MOL1        -0.3740
      25    C8      14.304505   19.395774   21.990690 C.3        1 MOL1         0.1003
      26    H12     13.324690   19.054579   21.632013 H          1 MOL1         0.0783
      27    O7      14.127999   20.145919   23.199870 O.3        1 MOL1        -0.5519
      28    H13     13.835748   19.481694   23.864057 H          1 MOL1         0.3769
      29    C9      15.166518   18.143786   22.279116 C.3        1 MOL1         0.1053
      30    H14     16.114133   18.475185   22.726448 H          1 MOL1         0.0783
      31    O8      14.469496   17.286744   23.191632 O.3        1 MOL1        -0.5519
      32    H15     15.074273   16.527200   23.384814 H          1 MOL1         0.3769
      33    C10     15.492350   17.372399   20.976362 C.3        1 MOL1         0.1018
      34    H16     14.589319   16.856735   20.623792 H          1 MOL1         0.0783
      35    C11     16.007102   18.310095   19.853182 C.3        1 MOL1         0.1043
      36    H17     17.003504   18.674455   20.131492 H          1 MOL1         0.0783
      37    O9      15.096425   19.426983   19.700050 O.3        1 MOL1        -0.3740
      38    C12     16.122916   17.609552   18.481505 C.3        1 MOL1         0.0138
      39    H18     16.819690   16.765838   18.565368 H          1 MOL1         0.0794
      40    H19     16.550500   18.318063   17.759475 H          1 MOL1         0.0794
      41    O10     14.845186   17.150703   18.030374 O.3        1 MOL1        -0.5486
      42    H20     14.250928   17.933256   18.058972 H          1 MOL1         0.3769
      43    C13     18.507935   24.083560   21.859797 C.3        1 MOL1         0.2972
      44    H21     18.915188   25.085032   22.048314 H          1 MOL1         0.0751
      45    O11     19.522199   23.169603   21.400518 O.3        1 MOL1        -0.3740
      46    C14     17.872432   23.510625   23.149244 C.3        1 MOL1         0.1003
      47    H22     17.039711   24.170068   23.426395 H          1 MOL1         0.0783
      48    O12     18.817590   23.469614   24.227232 O.3        1 MOL1        -0.5519
      49    H23     18.388182   22.905791   24.909430 H          1 MOL1         0.3769
      50    C15     17.295538   22.100342   22.891022 C.3        1 MOL1         0.1053
      51    H24     18.132809   21.418483   22.691731 H          1 MOL1         0.0783
      52    O13     16.568169   21.667543   24.046454 O.3        1 MOL1        -0.5519
      53    H25     15.922646   20.988704   23.733950 H          1 MOL1         0.3769
      54    C16     16.361415   22.079845   21.656358 C.3        1 MOL1         0.1018
      55    H26     15.393853   22.512367   21.945042 H          1 MOL1         0.0783
      56    C17     16.949246   22.846623   20.436014 C.3        1 MOL1         0.1043
      57    H27     17.759739   22.240155   20.010426 H          1 MOL1         0.0783
      58    O14     17.471438   24.132930   20.856396 O.3        1 MOL1        -0.3740
      59    C18     15.923808   23.104358   19.309488 C.3        1 MOL1         0.0138
      60    H28     15.613264   22.143241   18.879099 H          1 MOL1         0.0794
      61    H29     16.415346   23.674352   18.509639 H          1 MOL1         0.0794
      62    O15     14.784874   23.818093   19.799237 O.3        1 MOL1        -0.5486
      63    H30     15.129237   24.653841   20.185801 H          1 MOL1         0.3769
      64    C19     23.544558   22.778163   20.684079 C.3        1 MOL1         0.2972
      65    H31     24.597605   22.858059   20.385760 H          1 MOL1         0.0751
      66    O16     23.201668   21.424783   21.053755 O.3        1 MOL1        -0.3740
      67    C20     23.218137   23.748184   21.852131 C.3        1 MOL1         0.1003
      68    H32     23.360160   24.768796   21.474516 H          1 MOL1         0.0783
      69    O17     24.109082   23.542620   22.958634 O.3        1 MOL1        -0.5519
      70    H33     23.882239   22.661364   23.346949 H          1 MOL1         0.3769
      71    C21     21.729455   23.601749   22.267942 C.3        1 MOL1         0.1053
      72    H34     21.593164   22.595278   22.687432 H          1 MOL1         0.0783
      73    O18     21.374497   24.582594   23.250185 O.3        1 MOL1        -0.5519
      74    H35     20.541410   24.257581   23.672031 H          1 MOL1         0.3769
      75    C22     20.789308   23.745769   21.038792 C.3        1 MOL1         0.1018
      76    H36     20.693269   24.805361   20.766843 H          1 MOL1         0.0783
      77    C23     21.275070   22.951499   19.798072 C.3        1 MOL1         0.1043
      78    H37     21.074293   21.891100   19.983798 H          1 MOL1         0.0783
      79    O19     22.693686   23.154541   19.582983 O.3        1 MOL1        -0.3740
      80    C24     20.539097   23.344997   18.498651 C.3        1 MOL1         0.0138
      81    H38     19.462086   23.179639   18.631434 H          1 MOL1         0.0794
      82    H39     20.876407   22.683469   17.689422 H          1 MOL1         0.0794
      83    O20     20.790571   24.712054   18.160364 O.3        1 MOL1        -0.5486
      84    H40     21.768554   24.810439   18.140072 H          1 MOL1         0.3769
      85    C25     24.825340   17.776736   22.150782 C.3        1 MOL1         0.2972
      86    H41     25.470676   16.953476   22.482282 H          1 MOL1         0.0751
      87    O21     23.581161   17.287398   21.608022 O.3        1 MOL1        -0.3740
      88    C26     24.518977   18.723520   23.340268 C.3        1 MOL1         0.1003
      89    H42     25.478057   19.119995   23.697768 H          1 MOL1         0.0783
      90    O22     23.891709   17.985473   24.403735 O.3        1 MOL1        -0.5519
      91    H43     23.307438   18.606407   24.911595 H          1 MOL1         0.3769
      92    C27     23.655030   19.927758   22.883580 C.3        1 MOL1         0.1053
      93    H44     22.654826   19.554268   22.631744 H          1 MOL1         0.0783
      94    O23     23.571077   20.894853   23.938385 O.3        1 MOL1        -0.5519
      95    H45     22.987759   20.506467   24.640552 H          1 MOL1         0.3769
      96    C28     24.248807   20.615002   21.625041 C.3        1 MOL1         0.1018
      97    H46     25.112311   21.219576   21.932661 H          1 MOL1         0.0783
      98    C29     24.684466   19.601546   20.531903 C.3        1 MOL1         0.1043
      99    H47     23.777492   19.168287   20.090252 H          1 MOL1         0.0783
     100    O24     25.482475   18.547493   21.124122 O.3        1 MOL1        -0.3740
     101    C30     25.493022   20.239566   19.376925 C.3        1 MOL1         0.0138
     102    H48     24.811153   20.855327   18.774772 H          1 MOL1         0.0794
     103    H49     25.866412   19.436567   18.727316 H          1 MOL1         0.0794
     104    O25     26.580803   21.042569   19.853064 O.3        1 MOL1        -0.5486
     105    H50     27.092702   21.344484   19.071354 H          1 MOL1         0.3769
     106    C31     21.417814   13.779040   21.155008 C.3        1 MOL1         0.2972
     107    H51     21.072094   12.758745   20.946469 H          1 MOL1         0.0751
     108    O26     20.321114   14.676301   21.419425 O.3        1 MOL1        -0.3740
     109    C32     22.361646   13.792379   22.383118 C.3        1 MOL1         0.1003
     110    H52     23.226088   13.160298   22.141634 H          1 MOL1         0.0783
     111    O27     21.708137   13.274763   23.550298 O.3        1 MOL1        -0.5519
     112    H53     22.330552   13.468839   24.287088 H          1 MOL1         0.3769
     113    C33     22.878983   15.222671   22.664212 C.3        1 MOL1         0.1053
     114    H54     22.023408   15.835157   22.979422 H          1 MOL1         0.0783
     115    O28     23.849662   15.171498   23.716341 O.3        1 MOL1        -0.5519
     116    H55     23.928068   16.097890   24.056396 H          1 MOL1         0.3769
     117    C34     23.488093   15.866389   21.388338 C.3        1 MOL1         0.1018
     118    H56     24.473134   15.425836   21.184883 H          1 MOL1         0.0783
     119    C35     22.585534   15.674408   20.138324 C.3        1 MOL1         0.1043
     120    H57     21.705255   16.322753   20.237289 H          1 MOL1         0.0783
     121    O29     22.162712   14.292647   20.031732 O.3        1 MOL1        -0.3740
     122    C36     23.303150   16.044125   18.821188 C.3        1 MOL1         0.0138
     123    H58     23.642252   17.086796   18.876565 H          1 MOL1         0.0794
     124    H59     22.582446   15.974425   17.995526 H          1 MOL1         0.0794
     125    O30     24.415991   15.177503   18.582358 O.3        1 MOL1        -0.5486
     126    H60     24.063751   14.261865   18.647380 H          1 MOL1         0.3769
     127    C1      20.674308   19.517323   25.580922 C.2        1 MOL1         0.6168
     128    O1      19.944135   19.374089   26.541536 O.co2      1 MOL1        -0.6703
     129    O2      21.889691   19.526162   25.647863 O.co2      1 MOL1        -0.6703
     130    C2      20.036447   19.677449   24.204882 C.3        1 MOL1        -0.1963
     131    H1      20.630408   20.400516   23.636021 H          1 MOL1         0.0750
     132    H2      19.042708   20.115779   24.347023 H          1 MOL1         0.0750
     133    C3      19.915680   18.333633   23.441888 C.3        1 MOL1        -0.1860
     134    H3      20.897160   17.843184   23.397377 H          1 MOL1         0.0752
     135    H4      19.262299   17.665942   24.019734 H          1 MOL1         0.0752
     136    C4      19.342238   18.486016   22.014022 C.3        1 MOL1        -0.1858
     137    H5      18.444691   19.116831   22.035769 H          1 MOL1         0.0752
     138    H6      19.022029   17.497545   21.664704 H          1 MOL1         0.0752
     139    C5      20.368272   19.047313   21.005566 C.3        1 MOL1        -0.1858
     140    H7      20.680802   20.054878   21.306174 H          1 MOL1         0.0752
     141    H8      21.265376   18.418653   21.025676 H          1 MOL1         0.0752
     142    C6      19.801809   19.087762   19.570031 C.3        1 MOL1        -0.1858
     143    H9      19.057097   19.892149   19.499263 H          1 MOL1         0.0752
     144    H10     19.280030   18.146695   19.351869 H          1 MOL1         0.0752
     145    C7      20.908099   19.292193   18.513546 C.3        1 MOL1        -0.1834
     146    H11     21.517695   20.169642   18.759039 H          1 MOL1         0.0752
     147    H12     21.586867   18.430533   18.525474 H          1 MOL1         0.0752
     148    C8      20.315251   19.455595   17.100545 C.3        1 MOL1        -0.2849
     149    H13     19.652175   20.328953   17.051847 H          1 MOL1         0.0764
     150    H14     21.113443   19.593583   16.359970 H          1 MOL1         0.0764
     151    H15     19.735410   18.568697   16.813911 H          1 MOL1         0.0764
@<TRIPOS>BOND
    1     1     2    1
    2     1     3    1
    3     1     4    1
    4     4     5    1
    5     4     6    1
    6     6     7    1
    7     4     8    1
    8     8     9    1
    9     8    10    1
   10    10    11    1
   11     8    12    1
   12    12    13    1
   13    12    14    1
   14    14    15    1
   15     1    16    1
   16    14    16    1
   17    14    17    1
   18    17    18    1
   19    17    19    1
   20    17    20    1
   21    20    21    1
   22    22    23    1
   23    22    24    1
   24    22    25    1
   25    25    26    1
   26    25    27    1
   27    27    28    1
   28    25    29    1
   29    29    30    1
   30    29    31    1
   31    31    32    1
   32     3    33    1
   33    29    33    1
   34    33    34    1
   35    33    35    1
   36    35    36    1
   37    22    37    1
   38    35    37    1
   39    35    38    1
   40    38    39    1
   41    38    40    1
   42    38    41    1
   43    41    42    1
   44    43    44    1
   45    43    45    1
   46    43    46    1
   47    46    47    1
   48    46    48    1
   49    48    49    1
   50    46    50    1
   51    50    51    1
   52    50    52    1
   53    52    53    1
   54    24    54    1
   55    50    54    1
   56    54    55    1
   57    54    56    1
   58    56    57    1
   59    43    58    1
   60    56    58    1
   61    56    59    1
   62    59    60    1
   63    59    61    1
   64    59    62    1
   65    62    63    1
   66    64    65    1
   67    64    66    1
   68    64    67    1
   69    67    68    1
   70    67    69    1
   71    69    70    1
   72    67    71    1
   73    71    72    1
   74    71    73    1
   75    73    74    1
   76    45    75    1
   77    71    75    1
   78    75    76    1
   79    75    77    1
   80    77    78    1
   81    64    79    1
   82    77    79    1
   83    77    80    1
   84    80    81    1
   85    80    82    1
   86    80    83    1
   87    83    84    1
   88    85    86    1
   89    85    87    1
   90    85    88    1
   91    88    89    1
   92    88    90    1
   93    90    91    1
   94    88    92    1
   95    92    93    1
   96    92    94    1
   97    94    95    1
   98    66    96    1
   99    92    96    1
  100    96    97    1
  101    96    98    1
  102    98    99    1
  103    85   100    1
  104    98   100    1
  105    98   101    1
  106   101   102    1
  107   101   103    1
  108   101   104    1
  109   104   105    1
  110   106   107    1
  111    12   108    1
  112   106   108    1
  113   106   109    1
  114   109   110    1
  115   109   111    1
  116   111   112    1
  117   109   113    1
  118   113   114    1
  119   113   115    1
  120   115   116    1
  121    87   117    1
  122   113   117    1
  123   117   118    1
  124   117   119    1
  125   119   120    1
  126   106   121    1
  127   119   121    1
  128   119   122    1
  129   122   123    1
  130   122   124    1
  131   122   125    1
  132   125   126    1
  133   127   128    1
  134   127   129    2
  135   127   130    1
  136   130   131    1
  137   130   132    1
  138   130   133    1
  139   133   134    1
  140   133   135    1
  141   133   136    1
  142   136   137    1
  143   136   138    1
  144   136   139    1
  145   139   140    1
  146   139   141    1
  147   139   142    1
  148   142   143    1
  149   142   144    1
  150   142   145    1
  151   145   146    1
  152   145   147    1
  153   145   148    1
  154   148   149    1
  155   148   150    1
  156   148   151    1
@<TRIPOS>SUBSTRUCTURE
       1 MOL1            1 RESIDUE      1      MOL     
       2 MOL1          151 RESIDUE      1      MOL     
@<SCITEGIC>MOL_PROPERTY
VM2 Rank
SciTegic.value.IntegerValue
8

@<SCITEGIC>MOL_PROPERTY
Conf_Id
SciTegic.value.IntegerValue
29074

@<SCITEGIC>MOL_PROPERTY
Probability
SciTegic.value.DoubleValue
1.96

@<SCITEGIC>MOL_PROPERTY
Sum Probability
SciTegic.value.DoubleValue
23.82

@<SCITEGIC>MOL_PROPERTY
Delta G
SciTegic.value.DoubleValue
0.681

@<SCITEGIC>MOL_PROPERTY
G
SciTegic.value.DoubleValue
505.504

@<SCITEGIC>MOL_PROPERTY
E
SciTegic.value.DoubleValue
308.476

@<SCITEGIC>MOL_PROPERTY
-TS
SciTegic.value.DoubleValue
197.029

@<SCITEGIC>MOL_PROPERTY
U+W
SciTegic.value.DoubleValue
175.234

@<SCITEGIC>MOL_PROPERTY
U
SciTegic.value.DoubleValue
249.619

@<SCITEGIC>MOL_PROPERTY
W
SciTegic.value.DoubleValue
-74.385

@<SCITEGIC>MOL_PROPERTY
W(PB)
SciTegic.value.DoubleValue
-80.601

@<SCITEGIC>MOL_PROPERTY
W(SA)
SciTegic.value.DoubleValue
6.216

@<SCITEGIC>MOL_PROPERTY
Valence
SciTegic.value.DoubleValue
150.775

@<SCITEGIC>MOL_PROPERTY
Coulomb
SciTegic.value.DoubleValue
125.841

@<SCITEGIC>MOL_PROPERTY
VdW
SciTegic.value.DoubleValue
-26.998

@<SCITEGIC>MOL_PROPERTY
VdW6
SciTegic.value.DoubleValue
-184.824

@<SCITEGIC>MOL_PROPERTY
VdW12
SciTegic.value.DoubleValue
157.826

@<SCITEGIC>MOL_PROPERTY
Bond
SciTegic.value.DoubleValue
4.495

@<SCITEGIC>MOL_PROPERTY
Angle
SciTegic.value.DoubleValue
11.641

@<SCITEGIC>MOL_PROPERTY
Pdih
SciTegic.value.DoubleValue
134.638

@<SCITEGIC>MOL_PROPERTY
Idih
SciTegic.value.DoubleValue
0.001

@<SCITEGIC>MOL_PROPERTY
Tether
SciTegic.value.DoubleValue
0.000

