@<TRIPOS>MOLECULE
CD_guest-s21_vm2_single.mol2 : vm2 host+ligand conformer 1
         148         153           2
SMALL
USER_CHARGES
 
@<TRIPOS>ATOM
       1    C1      16.339585   15.162110   21.018578 C.3        1 MOL1         0.2972
       2    H1      15.284722   14.966883   20.788871 H          1 MOL1         0.0751
       3    O1      16.562453   16.542687   21.370281 O.3        1 MOL1        -0.3740
       4    C2      16.796779   14.270300   22.202417 C.3        1 MOL1         0.1003
       5    H2      16.621354   13.227162   21.908881 H          1 MOL1         0.0783
       6    O2      16.049253   14.553821   23.393242 O.3        1 MOL1        -0.5519
       7    H3      16.515879   14.056791   24.102407 H          1 MOL1         0.3769
       8    C3      18.309698   14.434131   22.480469 C.3        1 MOL1         0.1053
       9    H4      18.483294   15.448444   22.865848 H          1 MOL1         0.0783
      10    O3      18.722579   13.459945   23.447224 O.3        1 MOL1        -0.5519
      11    H5      19.702941   13.551744   23.547143 H          1 MOL1         0.3769
      12    C4      19.133185   14.261050   21.181836 C.3        1 MOL1         0.1018
      13    H6      19.103382   13.205627   20.880191 H          1 MOL1         0.0783
      14    C5      18.578060   15.128389   20.023024 C.3        1 MOL1         0.1043
      15    H7      18.739983   16.188680   20.256689 H          1 MOL1         0.0783
      16    O4      17.164472   14.844463   19.876837 O.3        1 MOL1        -0.3740
      17    C6      19.255572   14.807083   18.673873 C.3        1 MOL1         0.0138
      18    H8      19.139627   13.737286   18.455363 H          1 MOL1         0.0794
      19    H9      20.329266   15.019086   18.747652 H          1 MOL1         0.0794
      20    O5      18.677301   15.593306   17.630783 O.3        1 MOL1        -0.5486
      21    H10     17.707562   15.451897   17.694497 H          1 MOL1         0.3769
      22    C7      14.703742   20.276340   21.280899 C.3        1 MOL1         0.2972
      23    H11     13.983396   21.096008   21.164743 H          1 MOL1         0.0751
      24    O6      16.030194   20.764985   21.551043 O.3        1 MOL1        -0.3740
      25    C8      14.286460   19.347690   22.450400 C.3        1 MOL1         0.1003
      26    H12     13.286599   18.958640   22.218085 H          1 MOL1         0.0783
      27    O7      14.238287   20.061370   23.694101 O.3        1 MOL1        -0.5519
      28    H13     14.112831   19.362592   24.375045 H          1 MOL1         0.3769
      29    C9      15.248522   18.142076   22.577752 C.3        1 MOL1         0.1053
      30    H14     16.228803   18.514025   22.906990 H          1 MOL1         0.0783
      31    O8      14.725346   17.218290   23.540210 O.3        1 MOL1        -0.5519
      32    H15     15.293575   16.409047   23.496070 H          1 MOL1         0.3769
      33    C10     15.432366   17.424832   21.218384 C.3        1 MOL1         0.1018
      34    H16     14.508951   16.876869   20.989488 H          1 MOL1         0.0783
      35    C11     15.737226   18.418448   20.064083 C.3        1 MOL1         0.1043
      36    H17     16.741103   18.835866   20.211091 H          1 MOL1         0.0783
      37    O9      14.755035   19.483330   20.075394 O.3        1 MOL1        -0.3740
      38    C12     15.699639   17.767197   18.664683 C.3        1 MOL1         0.0138
      39    H18     16.489761   17.009546   18.602923 H          1 MOL1         0.0794
      40    H19     15.925433   18.534576   17.912340 H          1 MOL1         0.0794
      41    O10     14.423406   17.175466   18.403678 O.3        1 MOL1        -0.5486
      42    H20     13.760991   17.891533   18.523970 H          1 MOL1         0.3769
      43    C13     18.410405   24.116176   21.539486 C.3        1 MOL1         0.2972
      44    H21     18.848071   25.122471   21.539972 H          1 MOL1         0.0751
      45    O11     19.413307   23.096338   21.352311 O.3        1 MOL1        -0.3740
      46    C14     17.670635   23.861283   22.875813 C.3        1 MOL1         0.1003
      47    H22     16.857515   24.595464   22.946101 H          1 MOL1         0.0783
      48    O12     18.546395   24.021145   23.999858 O.3        1 MOL1        -0.5519
      49    H23     18.042973   23.651036   24.759649 H          1 MOL1         0.3769
      50    C15     17.039608   22.451830   22.890971 C.3        1 MOL1         0.1053
      51    H24     17.854495   21.718227   22.911578 H          1 MOL1         0.0783
      52    O13     16.219477   22.302314   24.056347 O.3        1 MOL1        -0.5519
      53    H25     15.698225   21.471275   23.929241 H          1 MOL1         0.3769
      54    C16     16.186096   22.193474   21.625194 C.3        1 MOL1         0.1018
      55    H26     15.224198   22.709159   21.745871 H          1 MOL1         0.0783
      56    C17     16.875459   22.658982   20.310863 C.3        1 MOL1         0.1043
      57    H27     17.674260   21.945314   20.070284 H          1 MOL1         0.0783
      58    O14     17.439419   23.984243   20.480388 O.3        1 MOL1        -0.3740
      59    C18     15.916430   22.713668   19.101103 C.3        1 MOL1         0.0138
      60    H28     15.546464   21.702619   18.887706 H          1 MOL1         0.0794
      61    H29     16.480317   23.047241   18.219677 H          1 MOL1         0.0794
      62    O15     14.820446   23.598363   19.352111 O.3        1 MOL1        -0.5486
      63    H30     15.217846   24.470370   19.571835 H          1 MOL1         0.3769
      64    C19     23.465918   22.566779   20.637503 C.3        1 MOL1         0.2972
      65    H31     24.512373   22.660967   20.320471 H          1 MOL1         0.0751
      66    O16     23.171132   21.227390   21.081167 O.3        1 MOL1        -0.3740
      67    C20     23.136005   23.579948   21.768533 C.3        1 MOL1         0.1003
      68    H32     23.304477   24.584507   21.360134 H          1 MOL1         0.0783
      69    O17     24.004309   23.390151   22.896955 O.3        1 MOL1        -0.5519
      70    H33     23.765778   22.516868   23.297178 H          1 MOL1         0.3769
      71    C21     21.641533   23.482203   22.177774 C.3        1 MOL1         0.1053
      72    H34     21.485052   22.509790   22.665091 H          1 MOL1         0.0783
      73    O18     21.298789   24.541300   23.080450 O.3        1 MOL1        -0.5519
      74    H35     20.398525   24.330942   23.431632 H          1 MOL1         0.3769
      75    C22     20.712589   23.558249   20.937119 C.3        1 MOL1         0.1018
      76    H36     20.680239   24.592939   20.570747 H          1 MOL1         0.0783
      77    C23     21.178905   22.639348   19.778060 C.3        1 MOL1         0.1043
      78    H37     20.997586   21.596535   20.065490 H          1 MOL1         0.0783
      79    O19     22.590615   22.850632   19.527085 O.3        1 MOL1        -0.3740
      80    C24     20.425328   22.901139   18.455444 C.3        1 MOL1         0.0138
      81    H38     19.351323   22.742788   18.615465 H          1 MOL1         0.0794
      82    H39     20.758677   22.166437   17.710242 H          1 MOL1         0.0794
      83    O20     20.662099   24.230656   17.983086 O.3        1 MOL1        -0.5486
      84    H40     21.639066   24.334572   17.947618 H          1 MOL1         0.3769
      85    C25     24.984297   17.682926   22.209304 C.3        1 MOL1         0.2972
      86    H41     25.661671   16.888384   22.547106 H          1 MOL1         0.0751
      87    O21     23.761189   17.145400   21.663761 O.3        1 MOL1        -0.3740
      88    C26     24.637607   18.632465   23.385278 C.3        1 MOL1         0.1003
      89    H42     25.572747   19.103481   23.714612 H          1 MOL1         0.0783
      90    O22     24.085703   17.883450   24.479128 O.3        1 MOL1        -0.5519
      91    H43     23.405688   18.452770   24.924248 H          1 MOL1         0.3769
      92    C27     23.686142   19.760759   22.908640 C.3        1 MOL1         0.1053
      93    H44     22.726281   19.309168   22.629969 H          1 MOL1         0.0783
      94    O23     23.487717   20.720338   23.955855 O.3        1 MOL1        -0.5519
      95    H45     22.846545   20.309032   24.593755 H          1 MOL1         0.3769
      96    C28     24.257411   20.477761   21.657838 C.3        1 MOL1         0.1018
      97    H46     25.081599   21.130057   21.975184 H          1 MOL1         0.0783
      98    C29     24.761084   19.483925   20.572758 C.3        1 MOL1         0.1043
      99    H47     23.886147   19.004060   20.113856 H          1 MOL1         0.0783
     100    O24     25.610010   18.478097   21.180273 O.3        1 MOL1        -0.3740
     101    C30     25.567721   20.155509   19.439077 C.3        1 MOL1         0.0138
     102    H48     24.905761   20.828954   18.878800 H          1 MOL1         0.0794
     103    H49     25.907273   19.378780   18.740803 H          1 MOL1         0.0794
     104    O25     26.686871   20.880338   19.957357 O.3        1 MOL1        -0.5486
     105    H50     27.222474   20.232101   20.466596 H          1 MOL1         0.3769
     106    C31     21.517079   13.719275   21.322023 C.3        1 MOL1         0.2972
     107    H51     21.113278   12.710247   21.172514 H          1 MOL1         0.0751
     108    O26     20.470876   14.701371   21.479382 O.3        1 MOL1        -0.3740
     109    C32     22.415800   13.743368   22.580697 C.3        1 MOL1         0.1003
     110    H52     23.246271   13.047106   22.405270 H          1 MOL1         0.0783
     111    O27     21.687382   13.327583   23.744171 O.3        1 MOL1        -0.5519
     112    H53     22.290175   13.522269   24.496660 H          1 MOL1         0.3769
     113    C33     23.013264   15.149942   22.808412 C.3        1 MOL1         0.1053
     114    H54     22.189877   15.819603   23.089124 H          1 MOL1         0.0783
     115    O28     23.966416   15.080478   23.874903 O.3        1 MOL1        -0.5519
     116    H55     24.094072   16.010565   24.187461 H          1 MOL1         0.3769
     117    C34     23.678666   15.714092   21.521947 C.3        1 MOL1         0.1018
     118    H56     24.670429   15.262220   21.388189 H          1 MOL1         0.0783
     119    C35     22.835161   15.467425   20.240025 C.3        1 MOL1         0.1043
     120    H57     21.989153   16.165374   20.246326 H          1 MOL1         0.0783
     121    O29     22.338773   14.106130   20.202870 O.3        1 MOL1        -0.3740
     122    C36     23.633897   15.713344   18.941058 C.3        1 MOL1         0.0138
     123    H58     24.003826   16.747423   18.938139 H          1 MOL1         0.0794
     124    H59     22.956374   15.603010   18.083819 H          1 MOL1         0.0794
     125    O30     24.726874   14.797101   18.829430 O.3        1 MOL1        -0.5486
     126    H60     24.339609   13.898919   18.929175 H          1 MOL1         0.3769
     127    C1      20.751440   18.475182   25.302280 C.2        1 MOL1         0.6145
     128    O1      20.076074   18.048432   26.217603 O.co2      1 MOL1        -0.6735
     129    O2      21.779744   19.109334   25.455546 O.co2      1 MOL1        -0.6735
     130    C2      20.277912   18.218633   23.874867 C.3        1 MOL1        -0.1985
     131    H1      19.509603   17.437076   23.900226 H          1 MOL1         0.0740
     132    H2      21.125522   17.821239   23.309094 H          1 MOL1         0.0740
     133    C3      19.717177   19.493925   23.196926 C.3        1 MOL1        -0.1882
     134    H3      18.897454   19.882350   23.815699 H          1 MOL1         0.0742
     135    H4      20.489330   20.274938   23.180749 H          1 MOL1         0.0742
     136    C4      19.192802   19.256206   21.762972 C.3        1 MOL1        -0.1880
     137    H5      18.735353   20.186884   21.406404 H          1 MOL1         0.0742
     138    H6      18.399180   18.500139   21.784629 H          1 MOL1         0.0742
     139    C5      20.289935   18.824998   20.766528 C.3        1 MOL1        -0.1880
     140    H7      21.167499   19.470324   20.887718 H          1 MOL1         0.0742
     141    H8      20.613765   17.802184   20.994031 H          1 MOL1         0.0742
     142    C6      19.797208   18.906175   19.306332 C.3        1 MOL1        -0.1856
     143    H9      19.427932   19.918578   19.096236 H          1 MOL1         0.0742
     144    H10     18.950811   18.223228   19.157353 H          1 MOL1         0.0742
     145    C7      20.919121   18.560425   18.308634 C.3        1 MOL1        -0.2871
     146    H11     20.560077   18.660740   17.276443 H          1 MOL1         0.0754
     147    H12     21.256254   17.526667   18.445985 H          1 MOL1         0.0754
     148    H13     21.780796   19.228298   18.437683 H          1 MOL1         0.0754
@<TRIPOS>BOND
    1     1     2    1
    2     1     3    1
    3     1     4    1
    4     4     5    1
    5     4     6    1
    6     6     7    1
    7     4     8    1
    8     8     9    1
    9     8    10    1
   10    10    11    1
   11     8    12    1
   12    12    13    1
   13    12    14    1
   14    14    15    1
   15     1    16    1
   16    14    16    1
   17    14    17    1
   18    17    18    1
   19    17    19    1
   20    17    20    1
   21    20    21    1
   22    22    23    1
   23    22    24    1
   24    22    25    1
   25    25    26    1
   26    25    27    1
   27    27    28    1
   28    25    29    1
   29    29    30    1
   30    29    31    1
   31    31    32    1
   32     3    33    1
   33    29    33    1
   34    33    34    1
   35    33    35    1
   36    35    36    1
   37    22    37    1
   38    35    37    1
   39    35    38    1
   40    38    39    1
   41    38    40    1
   42    38    41    1
   43    41    42    1
   44    43    44    1
   45    43    45    1
   46    43    46    1
   47    46    47    1
   48    46    48    1
   49    48    49    1
   50    46    50    1
   51    50    51    1
   52    50    52    1
   53    52    53    1
   54    24    54    1
   55    50    54    1
   56    54    55    1
   57    54    56    1
   58    56    57    1
   59    43    58    1
   60    56    58    1
   61    56    59    1
   62    59    60    1
   63    59    61    1
   64    59    62    1
   65    62    63    1
   66    64    65    1
   67    64    66    1
   68    64    67    1
   69    67    68    1
   70    67    69    1
   71    69    70    1
   72    67    71    1
   73    71    72    1
   74    71    73    1
   75    73    74    1
   76    45    75    1
   77    71    75    1
   78    75    76    1
   79    75    77    1
   80    77    78    1
   81    64    79    1
   82    77    79    1
   83    77    80    1
   84    80    81    1
   85    80    82    1
   86    80    83    1
   87    83    84    1
   88    85    86    1
   89    85    87    1
   90    85    88    1
   91    88    89    1
   92    88    90    1
   93    90    91    1
   94    88    92    1
   95    92    93    1
   96    92    94    1
   97    94    95    1
   98    66    96    1
   99    92    96    1
  100    96    97    1
  101    96    98    1
  102    98    99    1
  103    85   100    1
  104    98   100    1
  105    98   101    1
  106   101   102    1
  107   101   103    1
  108   101   104    1
  109   104   105    1
  110   106   107    1
  111    12   108    1
  112   106   108    1
  113   106   109    1
  114   109   110    1
  115   109   111    1
  116   111   112    1
  117   109   113    1
  118   113   114    1
  119   113   115    1
  120   115   116    1
  121    87   117    1
  122   113   117    1
  123   117   118    1
  124   117   119    1
  125   119   120    1
  126   106   121    1
  127   119   121    1
  128   119   122    1
  129   122   123    1
  130   122   124    1
  131   122   125    1
  132   125   126    1
  133   127   128    1
  134   127   129    2
  135   127   130    1
  136   130   131    1
  137   130   132    1
  138   130   133    1
  139   133   134    1
  140   133   135    1
  141   133   136    1
  142   136   137    1
  143   136   138    1
  144   136   139    1
  145   139   140    1
  146   139   141    1
  147   139   142    1
  148   142   143    1
  149   142   144    1
  150   142   145    1
  151   145   146    1
  152   145   147    1
  153   145   148    1
@<TRIPOS>SUBSTRUCTURE
       1 MOL1            1 RESIDUE      1      MOL     
       2 MOL1          148 RESIDUE      1      MOL     
@<SCITEGIC>MOL_PROPERTY
VM2 Rank
SciTegic.value.IntegerValue
1

@<SCITEGIC>MOL_PROPERTY
Conf_Id
SciTegic.value.IntegerValue
25393

@<SCITEGIC>MOL_PROPERTY
Probability
SciTegic.value.DoubleValue
3.94

@<SCITEGIC>MOL_PROPERTY
Sum Probability
SciTegic.value.DoubleValue
3.94

@<SCITEGIC>MOL_PROPERTY
Delta G
SciTegic.value.DoubleValue
0.000

@<SCITEGIC>MOL_PROPERTY
G
SciTegic.value.DoubleValue
497.019

@<SCITEGIC>MOL_PROPERTY
E
SciTegic.value.DoubleValue
304.927

@<SCITEGIC>MOL_PROPERTY
-TS
SciTegic.value.DoubleValue
192.092

@<SCITEGIC>MOL_PROPERTY
U+W
SciTegic.value.DoubleValue
174.368

@<SCITEGIC>MOL_PROPERTY
U
SciTegic.value.DoubleValue
247.971

@<SCITEGIC>MOL_PROPERTY
W
SciTegic.value.DoubleValue
-73.603

@<SCITEGIC>MOL_PROPERTY
W(PB)
SciTegic.value.DoubleValue
-79.747

@<SCITEGIC>MOL_PROPERTY
W(SA)
SciTegic.value.DoubleValue
6.144

@<SCITEGIC>MOL_PROPERTY
Valence
SciTegic.value.DoubleValue
151.083

@<SCITEGIC>MOL_PROPERTY
Coulomb
SciTegic.value.DoubleValue
123.845

@<SCITEGIC>MOL_PROPERTY
VdW
SciTegic.value.DoubleValue
-26.957

@<SCITEGIC>MOL_PROPERTY
VdW6
SciTegic.value.DoubleValue
-181.950

@<SCITEGIC>MOL_PROPERTY
VdW12
SciTegic.value.DoubleValue
154.993

@<SCITEGIC>MOL_PROPERTY
Bond
SciTegic.value.DoubleValue
4.459

@<SCITEGIC>MOL_PROPERTY
Angle
SciTegic.value.DoubleValue
11.005

@<SCITEGIC>MOL_PROPERTY
Pdih
SciTegic.value.DoubleValue
135.619

@<SCITEGIC>MOL_PROPERTY
Idih
SciTegic.value.DoubleValue
0.000

@<SCITEGIC>MOL_PROPERTY
Tether
SciTegic.value.DoubleValue
0.000

@<TRIPOS>MOLECULE
CD_guest-s21_vm2_single.mol2 : vm2 host+ligand conformer 2
         148         153           2
SMALL
USER_CHARGES
 
@<TRIPOS>ATOM
       1    C1      16.332161   15.229368   21.598791 C.3        1 MOL1         0.2972
       2    H1      15.255081   15.087836   21.754065 H          1 MOL1         0.0751
       3    O1      16.639816   16.586382   21.217289 O.3        1 MOL1        -0.3740
       4    C2      17.110784   14.869146   22.889083 C.3        1 MOL1         0.1003
       5    H2      16.913464   13.810224   23.101148 H          1 MOL1         0.0783
       6    O2      16.685834   15.652024   24.011676 O.3        1 MOL1        -0.5519
       7    H3      17.389239   15.511297   24.685788 H          1 MOL1         0.3769
       8    C3      18.632898   15.028552   22.681136 C.3        1 MOL1         0.1053
       9    H4      18.854547   16.092208   22.525013 H          1 MOL1         0.0783
      10    O3      19.307778   14.546989   23.848567 O.3        1 MOL1        -0.5519
      11    H5      20.206381   14.256361   23.561083 H          1 MOL1         0.3769
      12    C4      19.114047   14.253581   21.430182 C.3        1 MOL1         0.1018
      13    H6      19.138540   13.181312   21.667044 H          1 MOL1         0.0783
      14    C5      18.206074   14.508366   20.193479 C.3        1 MOL1         0.1043
      15    H7      18.383564   15.533895   19.842864 H          1 MOL1         0.0783
      16    O4      16.809641   14.352825   20.554690 O.3        1 MOL1        -0.3740
      17    C6      18.497939   13.553506   19.014774 C.3        1 MOL1         0.0138
      18    H8      19.520226   13.731075   18.654949 H          1 MOL1         0.0794
      19    H9      17.814519   13.793015   18.189072 H          1 MOL1         0.0794
      20    O5      18.343568   12.186356   19.407262 O.3        1 MOL1        -0.5486
      21    H10     17.424512   12.100267   19.745674 H          1 MOL1         0.3769
      22    C7      14.775840   20.305907   20.907041 C.3        1 MOL1         0.2972
      23    H11     14.085144   21.129575   20.685566 H          1 MOL1         0.0751
      24    O6      16.047372   20.787488   21.378874 O.3        1 MOL1        -0.3740
      25    C8      14.184769   19.374583   21.994943 C.3        1 MOL1         0.1003
      26    H12     13.231655   18.986747   21.612562 H          1 MOL1         0.0783
      27    O7      13.950267   20.088535   23.217706 O.3        1 MOL1        -0.5519
      28    H13     13.711252   19.391291   23.868974 H          1 MOL1         0.3769
      29    C9      15.116767   18.168482   22.267037 C.3        1 MOL1         0.1053
      30    H14     16.034559   18.547134   22.738825 H          1 MOL1         0.0783
      31    O8      14.450992   17.264023   23.155983 O.3        1 MOL1        -0.5519
      32    H15     15.157396   16.680675   23.529990 H          1 MOL1         0.3769
      33    C10     15.514415   17.447967   20.948669 C.3        1 MOL1         0.1018
      34    H16     14.657676   16.879083   20.563736 H          1 MOL1         0.0783
      35    C11     15.977528   18.449665   19.857694 C.3        1 MOL1         0.1043
      36    H17     16.947416   18.866668   20.155811 H          1 MOL1         0.0783
      37    O9      15.005350   19.514995   19.722035 O.3        1 MOL1        -0.3740
      38    C12     16.150428   17.793412   18.469957 C.3        1 MOL1         0.0138
      39    H18     16.888007   16.983522   18.544509 H          1 MOL1         0.0794
      40    H19     16.552587   18.541897   17.774291 H          1 MOL1         0.0794
      41    O10     14.905185   17.283236   17.984428 O.3        1 MOL1        -0.5486
      42    H20     14.268549   18.030692   18.035435 H          1 MOL1         0.3769
      43    C13     18.385183   24.155154   21.688431 C.3        1 MOL1         0.2972
      44    H21     18.806719   25.165348   21.765303 H          1 MOL1         0.0751
      45    O11     19.414682   23.156220   21.538836 O.3        1 MOL1        -0.3740
      46    C14     17.554729   23.835491   22.955391 C.3        1 MOL1         0.1003
      47    H22     16.736014   24.565159   23.004087 H          1 MOL1         0.0783
      48    O12     18.355163   23.944580   24.140777 O.3        1 MOL1        -0.5519
      49    H23     17.802335   23.548473   24.851201 H          1 MOL1         0.3769
      50    C15     16.929518   22.425406   22.862573 C.3        1 MOL1         0.1053
      51    H24     17.743446   21.693124   22.926203 H          1 MOL1         0.0783
      52    O13     16.014156   22.228144   23.947110 O.3        1 MOL1        -0.5519
      53    H25     15.488510   21.420422   23.726385 H          1 MOL1         0.3769
      54    C16     16.183313   22.212480   21.521733 C.3        1 MOL1         0.1018
      55    H26     15.208698   22.714459   21.585566 H          1 MOL1         0.0783
      56    C17     16.971415   22.734865   20.287020 C.3        1 MOL1         0.1043
      57    H27     17.797370   22.039010   20.088555 H          1 MOL1         0.0783
      58    O14     17.499711   24.058003   20.553909 O.3        1 MOL1        -0.3740
      59    C18     16.118030   22.828051   19.002461 C.3        1 MOL1         0.0138
      60    H28     15.795561   21.821003   18.708749 H          1 MOL1         0.0794
      61    H29     16.746092   23.217860   18.190214 H          1 MOL1         0.0794
      62    O15     14.980970   23.673828   19.198541 O.3        1 MOL1        -0.5486
      63    H30     15.334107   24.544947   19.486654 H          1 MOL1         0.3769
      64    C19     23.482279   22.677722   20.904674 C.3        1 MOL1         0.2972
      65    H31     24.539236   22.789343   20.630746 H          1 MOL1         0.0751
      66    O16     23.166672   21.310749   21.236239 O.3        1 MOL1        -0.3740
      67    C20     23.117151   23.600953   22.099495 C.3        1 MOL1         0.1003
      68    H32     23.289709   24.634730   21.774175 H          1 MOL1         0.0783
      69    O17     23.958160   23.328291   23.231233 O.3        1 MOL1        -0.5519
      70    H33     23.737694   22.414184   23.540279 H          1 MOL1         0.3769
      71    C21     21.611757   23.463043   22.454626 C.3        1 MOL1         0.1053
      72    H34     21.445601   22.450075   22.846476 H          1 MOL1         0.0783
      73    O18     21.227779   24.433815   23.437121 O.3        1 MOL1        -0.5519
      74    H35     20.300787   24.214116   23.702384 H          1 MOL1         0.3769
      75    C22     20.723451   23.649484   21.196966 C.3        1 MOL1         0.1018
      76    H36     20.703029   24.713408   20.925873 H          1 MOL1         0.0783
      77    C23     21.224746   22.836883   19.974103 C.3        1 MOL1         0.1043
      78    H37     21.024992   21.774255   20.156041 H          1 MOL1         0.0783
      79    O19     22.646166   23.054113   19.791421 O.3        1 MOL1        -0.3740
      80    C24     20.522929   23.228537   18.655108 C.3        1 MOL1         0.0138
      81    H38     19.443259   23.063960   18.758110 H          1 MOL1         0.0794
      82    H39     20.881490   22.565704   17.856269 H          1 MOL1         0.0794
      83    O20     20.783016   24.594924   18.320334 O.3        1 MOL1        -0.5486
      84    H40     21.761126   24.693708   18.328530 H          1 MOL1         0.3769
      85    C25     24.928969   17.651992   22.046017 C.3        1 MOL1         0.2972
      86    H41     25.600861   16.825431   22.309810 H          1 MOL1         0.0751
      87    O21     23.694200   17.171363   21.474573 O.3        1 MOL1        -0.3740
      88    C26     24.606540   18.501457   23.302749 C.3        1 MOL1         0.1003
      89    H42     25.553706   18.916969   23.670191 H          1 MOL1         0.0783
      90    O22     24.036850   17.666454   24.323938 O.3        1 MOL1        -0.5519
      91    H43     23.449767   18.232129   24.889436 H          1 MOL1         0.3769
      92    C27     23.681446   19.692632   22.938225 C.3        1 MOL1         0.1053
      93    H44     22.700867   19.291544   22.654187 H          1 MOL1         0.0783
      94    O23     23.545197   20.575611   24.059765 O.3        1 MOL1        -0.5519
      95    H45     22.948289   20.122136   24.711233 H          1 MOL1         0.3769
      96    C28     24.244395   20.495183   21.735430 C.3        1 MOL1         0.1018
      97    H46     25.086411   21.105260   22.088498 H          1 MOL1         0.0783
      98    C29     24.710081   19.582757   20.566273 C.3        1 MOL1         0.1043
      99    H47     23.818644   19.154568   20.088375 H          1 MOL1         0.0783
     100    O24     25.552747   18.520245   21.076957 O.3        1 MOL1        -0.3740
     101    C30     25.507486   20.330036   19.474150 C.3        1 MOL1         0.0138
     102    H48     24.848239   21.059303   18.984983 H          1 MOL1         0.0794
     103    H49     25.817713   19.607005   18.707894 H          1 MOL1         0.0794
     104    O25     26.650811   20.989389   20.026142 O.3        1 MOL1        -0.5486
     105    H50     27.181324   20.292192   20.472133 H          1 MOL1         0.3769
     106    C31     21.449824   13.790072   20.827417 C.3        1 MOL1         0.2972
     107    H51     21.023547   12.813583   20.563486 H          1 MOL1         0.0751
     108    O26     20.421807   14.764164   21.107697 O.3        1 MOL1        -0.3740
     109    C32     22.396600   13.677947   22.049114 C.3        1 MOL1         0.1003
     110    H52     23.234737   13.032666   21.754963 H          1 MOL1         0.0783
     111    O27     21.740167   13.101468   23.184079 O.3        1 MOL1        -0.5519
     112    H53     22.396553   13.173402   23.913738 H          1 MOL1         0.3769
     113    C33     22.972338   15.065085   22.418878 C.3        1 MOL1         0.1053
     114    H54     22.143066   15.693908   22.771662 H          1 MOL1         0.0783
     115    O28     23.937950   14.909491   23.465019 O.3        1 MOL1        -0.5519
     116    H55     24.053641   15.808435   23.862698 H          1 MOL1         0.3769
     117    C34     23.615296   15.761452   21.187730 C.3        1 MOL1         0.1018
     118    H56     24.607355   15.331437   20.996332 H          1 MOL1         0.0783
     119    C35     22.755994   15.637415   19.898111 C.3        1 MOL1         0.1043
     120    H57     21.911997   16.333607   19.978914 H          1 MOL1         0.0783
     121    O29     22.250285   14.288733   19.737151 O.3        1 MOL1        -0.3740
     122    C36     23.548063   15.995683   18.620960 C.3        1 MOL1         0.0138
     123    H58     23.934267   17.019555   18.713960 H          1 MOL1         0.0794
     124    H59     22.861894   15.977773   17.763743 H          1 MOL1         0.0794
     125    O30     24.626523   15.079248   18.411231 O.3        1 MOL1        -0.5486
     126    H60     24.225979   14.181428   18.426519 H          1 MOL1         0.3769
     127    C1      20.807774   18.534162   25.538415 C.2        1 MOL1         0.6145
     128    O1      21.942517   18.961874   25.644222 O.co2      1 MOL1        -0.6735
     129    O2      20.060350   18.358666   26.480223 O.co2      1 MOL1        -0.6735
     130    C2      20.288284   18.232519   24.136444 C.3        1 MOL1        -0.1985
     131    H1      19.516727   17.460394   24.226206 H          1 MOL1         0.0740
     132    H2      21.110663   17.804387   23.553900 H          1 MOL1         0.0740
     133    C3      19.703983   19.484701   23.434461 C.3        1 MOL1        -0.1882
     134    H3      18.869816   19.862331   24.041198 H          1 MOL1         0.0742
     135    H4      20.456505   20.284428   23.414458 H          1 MOL1         0.0742
     136    C4      19.195231   19.213182   21.999629 C.3        1 MOL1        -0.1880
     137    H5      18.627261   20.089608   21.668256 H          1 MOL1         0.0742
     138    H6      18.494512   18.369756   22.004453 H          1 MOL1         0.0742
     139    C5      20.328420   18.959055   20.982354 C.3        1 MOL1        -0.1880
     140    H7      21.081398   19.746487   21.088899 H          1 MOL1         0.0742
     141    H8      20.829492   18.008037   21.202710 H          1 MOL1         0.0742
     142    C6      19.802458   18.954852   19.531006 C.3        1 MOL1        -0.1856
     143    H9      19.159876   19.830494   19.367295 H          1 MOL1         0.0742
     144    H10     19.180901   18.064199   19.369193 H          1 MOL1         0.0742
     145    C7      20.950001   18.987079   18.502272 C.3        1 MOL1        -0.2871
     146    H11     20.551943   18.996060   17.479648 H          1 MOL1         0.0754
     147    H12     21.595432   18.109776   18.605955 H          1 MOL1         0.0754
     148    H13     21.570326   19.883203   18.633202 H          1 MOL1         0.0754
@<TRIPOS>BOND
    1     1     2    1
    2     1     3    1
    3     1     4    1
    4     4     5    1
    5     4     6    1
    6     6     7    1
    7     4     8    1
    8     8     9    1
    9     8    10    1
   10    10    11    1
   11     8    12    1
   12    12    13    1
   13    12    14    1
   14    14    15    1
   15     1    16    1
   16    14    16    1
   17    14    17    1
   18    17    18    1
   19    17    19    1
   20    17    20    1
   21    20    21    1
   22    22    23    1
   23    22    24    1
   24    22    25    1
   25    25    26    1
   26    25    27    1
   27    27    28    1
   28    25    29    1
   29    29    30    1
   30    29    31    1
   31    31    32    1
   32     3    33    1
   33    29    33    1
   34    33    34    1
   35    33    35    1
   36    35    36    1
   37    22    37    1
   38    35    37    1
   39    35    38    1
   40    38    39    1
   41    38    40    1
   42    38    41    1
   43    41    42    1
   44    43    44    1
   45    43    45    1
   46    43    46    1
   47    46    47    1
   48    46    48    1
   49    48    49    1
   50    46    50    1
   51    50    51    1
   52    50    52    1
   53    52    53    1
   54    24    54    1
   55    50    54    1
   56    54    55    1
   57    54    56    1
   58    56    57    1
   59    43    58    1
   60    56    58    1
   61    56    59    1
   62    59    60    1
   63    59    61    1
   64    59    62    1
   65    62    63    1
   66    64    65    1
   67    64    66    1
   68    64    67    1
   69    67    68    1
   70    67    69    1
   71    69    70    1
   72    67    71    1
   73    71    72    1
   74    71    73    1
   75    73    74    1
   76    45    75    1
   77    71    75    1
   78    75    76    1
   79    75    77    1
   80    77    78    1
   81    64    79    1
   82    77    79    1
   83    77    80    1
   84    80    81    1
   85    80    82    1
   86    80    83    1
   87    83    84    1
   88    85    86    1
   89    85    87    1
   90    85    88    1
   91    88    89    1
   92    88    90    1
   93    90    91    1
   94    88    92    1
   95    92    93    1
   96    92    94    1
   97    94    95    1
   98    66    96    1
   99    92    96    1
  100    96    97    1
  101    96    98    1
  102    98    99    1
  103    85   100    1
  104    98   100    1
  105    98   101    1
  106   101   102    1
  107   101   103    1
  108   101   104    1
  109   104   105    1
  110   106   107    1
  111    12   108    1
  112   106   108    1
  113   106   109    1
  114   109   110    1
  115   109   111    1
  116   111   112    1
  117   109   113    1
  118   113   114    1
  119   113   115    1
  120   115   116    1
  121    87   117    1
  122   113   117    1
  123   117   118    1
  124   117   119    1
  125   119   120    1
  126   106   121    1
  127   119   121    1
  128   119   122    1
  129   122   123    1
  130   122   124    1
  131   122   125    1
  132   125   126    1
  133   127   128    1
  134   127   129    2
  135   127   130    1
  136   130   131    1
  137   130   132    1
  138   130   133    1
  139   133   134    1
  140   133   135    1
  141   133   136    1
  142   136   137    1
  143   136   138    1
  144   136   139    1
  145   139   140    1
  146   139   141    1
  147   139   142    1
  148   142   143    1
  149   142   144    1
  150   142   145    1
  151   145   146    1
  152   145   147    1
  153   145   148    1
@<TRIPOS>SUBSTRUCTURE
       1 MOL1            1 RESIDUE      1      MOL     
       2 MOL1          148 RESIDUE      1      MOL     
@<SCITEGIC>MOL_PROPERTY
VM2 Rank
SciTegic.value.IntegerValue
2

@<SCITEGIC>MOL_PROPERTY
Conf_Id
SciTegic.value.IntegerValue
17441

@<SCITEGIC>MOL_PROPERTY
Probability
SciTegic.value.DoubleValue
3.02

@<SCITEGIC>MOL_PROPERTY
Sum Probability
SciTegic.value.DoubleValue
6.96

@<SCITEGIC>MOL_PROPERTY
Delta G
SciTegic.value.DoubleValue
0.159

@<SCITEGIC>MOL_PROPERTY
G
SciTegic.value.DoubleValue
497.177

@<SCITEGIC>MOL_PROPERTY
E
SciTegic.value.DoubleValue
305.142

@<SCITEGIC>MOL_PROPERTY
-TS
SciTegic.value.DoubleValue
192.035

@<SCITEGIC>MOL_PROPERTY
U+W
SciTegic.value.DoubleValue
174.582

@<SCITEGIC>MOL_PROPERTY
U
SciTegic.value.DoubleValue
247.949

@<SCITEGIC>MOL_PROPERTY
W
SciTegic.value.DoubleValue
-73.366

@<SCITEGIC>MOL_PROPERTY
W(PB)
SciTegic.value.DoubleValue
-79.547

@<SCITEGIC>MOL_PROPERTY
W(SA)
SciTegic.value.DoubleValue
6.180

@<SCITEGIC>MOL_PROPERTY
Valence
SciTegic.value.DoubleValue
150.256

@<SCITEGIC>MOL_PROPERTY
Coulomb
SciTegic.value.DoubleValue
123.027

@<SCITEGIC>MOL_PROPERTY
VdW
SciTegic.value.DoubleValue
-25.334

@<SCITEGIC>MOL_PROPERTY
VdW6
SciTegic.value.DoubleValue
-181.904

@<SCITEGIC>MOL_PROPERTY
VdW12
SciTegic.value.DoubleValue
156.569

@<SCITEGIC>MOL_PROPERTY
Bond
SciTegic.value.DoubleValue
4.561

@<SCITEGIC>MOL_PROPERTY
Angle
SciTegic.value.DoubleValue
11.631

@<SCITEGIC>MOL_PROPERTY
Pdih
SciTegic.value.DoubleValue
134.063

@<SCITEGIC>MOL_PROPERTY
Idih
SciTegic.value.DoubleValue
0.001

@<SCITEGIC>MOL_PROPERTY
Tether
SciTegic.value.DoubleValue
0.000

@<TRIPOS>MOLECULE
CD_guest-s21_vm2_single.mol2 : vm2 host+ligand conformer 3
         148         153           2
SMALL
USER_CHARGES
 
@<TRIPOS>ATOM
       1    C1      16.200671   15.044579   21.329325 C.3        1 MOL1         0.2972
       2    H1      15.114279   14.897725   21.283494 H          1 MOL1         0.0751
       3    O1      16.553625   16.442221   21.297476 O.3        1 MOL1        -0.3740
       4    C2      16.764185   14.412253   22.626170 C.3        1 MOL1         0.1003
       5    H2      16.544132   13.337438   22.587483 H          1 MOL1         0.0783
       6    O2      16.150958   14.974755   23.793977 O.3        1 MOL1        -0.5519
       7    H3      16.698766   14.646584   24.542319 H          1 MOL1         0.3769
       8    C3      18.298587   14.578281   22.702526 C.3        1 MOL1         0.1053
       9    H4      18.520552   15.644031   22.840426 H          1 MOL1         0.0783
      10    O3      18.803871   13.827736   23.813448 O.3        1 MOL1        -0.5519
      11    H5      19.788158   13.805680   23.717215 H          1 MOL1         0.3769
      12    C4      18.988523   14.101753   21.400529 C.3        1 MOL1         0.1018
      13    H6      19.016142   13.004064   21.404448 H          1 MOL1         0.0783
      14    C5      18.278928   14.606152   20.112657 C.3        1 MOL1         0.1043
      15    H7      18.488713   15.677974   19.999977 H          1 MOL1         0.0783
      16    O4      16.847978   14.395354   20.214837 O.3        1 MOL1        -0.3740
      17    C6      18.764450   13.895803   18.829771 C.3        1 MOL1         0.0138
      18    H8      19.830854   14.109744   18.681078 H          1 MOL1         0.0794
      19    H9      18.224412   14.313748   17.969685 H          1 MOL1         0.0794
      20    O5      18.550203   12.483543   18.910903 O.3        1 MOL1        -0.5486
      21    H10     17.590477   12.362737   19.086847 H          1 MOL1         0.3769
      22    C7      14.943825   20.249112   20.806704 C.3        1 MOL1         0.2972
      23    H11     14.301513   21.101700   20.551155 H          1 MOL1         0.0751
      24    O6      16.254563   20.681844   21.219243 O.3        1 MOL1        -0.3740
      25    C8      14.308142   19.400222   21.940123 C.3        1 MOL1         0.1003
      26    H12     13.331316   19.054269   21.577817 H          1 MOL1         0.0783
      27    O7      14.120068   20.167062   23.136644 O.3        1 MOL1        -0.5519
      28    H13     13.818536   19.512587   23.806458 H          1 MOL1         0.3769
      29    C9      15.166456   18.151687   22.253239 C.3        1 MOL1         0.1053
      30    H14     16.113643   18.488520   22.697515 H          1 MOL1         0.0783
      31    O8      14.464307   17.312747   23.178532 O.3        1 MOL1        -0.5519
      32    H15     15.074246   16.565750   23.401979 H          1 MOL1         0.3769
      33    C10     15.493495   17.357674   20.964206 C.3        1 MOL1         0.1018
      34    H16     14.590939   16.836334   20.618793 H          1 MOL1         0.0783
      35    C11     16.010410   18.274821   19.824931 C.3        1 MOL1         0.1043
      36    H17     17.010111   18.636979   20.094092 H          1 MOL1         0.0783
      37    O9      15.107655   19.395845   19.654352 O.3        1 MOL1        -0.3740
      38    C12     16.117206   17.549627   18.465365 C.3        1 MOL1         0.0138
      39    H18     16.806515   16.701169   18.562811 H          1 MOL1         0.0794
      40    H19     16.549293   18.241717   17.730319 H          1 MOL1         0.0794
      41    O10     14.834665   17.094285   18.024355 O.3        1 MOL1        -0.5486
      42    H20     14.247173   17.882359   18.040804 H          1 MOL1         0.3769
      43    C13     18.508897   24.077036   21.859263 C.3        1 MOL1         0.2972
      44    H21     18.904642   25.079799   22.064660 H          1 MOL1         0.0751
      45    O11     19.536304   23.179610   21.396838 O.3        1 MOL1        -0.3740
      46    C14     17.868504   23.480912   23.135601 C.3        1 MOL1         0.1003
      47    H22     17.029692   24.130994   23.416481 H          1 MOL1         0.0783
      48    O12     18.806187   23.430516   24.219677 O.3        1 MOL1        -0.5519
      49    H23     18.377777   22.849477   24.888066 H          1 MOL1         0.3769
      50    C15     17.301956   22.070797   22.853998 C.3        1 MOL1         0.1053
      51    H24     18.143884   21.396748   22.648162 H          1 MOL1         0.0783
      52    O13     16.572556   21.619476   24.000899 O.3        1 MOL1        -0.5519
      53    H25     15.916638   20.957421   23.674674 H          1 MOL1         0.3769
      54    C16     16.374441   22.062118   21.614243 C.3        1 MOL1         0.1018
      55    H26     15.404817   22.490893   21.901647 H          1 MOL1         0.0783
      56    C17     16.970312   22.844913   20.408251 C.3        1 MOL1         0.1043
      57    H27     17.789004   22.247960   19.984724 H          1 MOL1         0.0783
      58    O14     17.480352   24.129963   20.847520 O.3        1 MOL1        -0.3740
      59    C18     15.954088   23.107795   19.274612 C.3        1 MOL1         0.0138
      60    H28     15.652259   22.148851   18.833202 H          1 MOL1         0.0794
      61    H29     16.450058   23.687288   18.484394 H          1 MOL1         0.0794
      62    O15     14.807097   23.811441   19.760156 O.3        1 MOL1        -0.5486
      63    H30     15.143796   24.644966   20.158147 H          1 MOL1         0.3769
      64    C19     23.562053   22.814749   20.710385 C.3        1 MOL1         0.2972
      65    H31     24.618603   22.896361   20.424325 H          1 MOL1         0.0751
      66    O16     23.210489   21.455072   21.050376 O.3        1 MOL1        -0.3740
      67    C20     23.225428   23.765176   21.891303 C.3        1 MOL1         0.1003
      68    H32     23.365921   24.791983   21.530214 H          1 MOL1         0.0783
      69    O17     24.111308   23.546756   22.999169 O.3        1 MOL1        -0.5519
      70    H33     23.878501   22.663664   23.379512 H          1 MOL1         0.3769
      71    C21     21.734111   23.606802   22.293730 C.3        1 MOL1         0.1053
      72    H34     21.597060   22.592352   22.693188 H          1 MOL1         0.0783
      73    O18     21.368687   24.568103   23.291235 O.3        1 MOL1        -0.5519
      74    H35     20.531603   24.234405   23.698209 H          1 MOL1         0.3769
      75    C22     20.803074   23.772225   21.060206 C.3        1 MOL1         0.1018
      76    H36     20.702378   24.837401   20.812882 H          1 MOL1         0.0783
      77    C23     21.302723   23.011355   19.803796 C.3        1 MOL1         0.1043
      78    H37     21.099472   21.946013   19.957180 H          1 MOL1         0.0783
      79    O19     22.723955   23.216541   19.608526 O.3        1 MOL1        -0.3740
      80    C24     20.580133   23.444028   18.509199 C.3        1 MOL1         0.0138
      81    H38     19.501097   23.280640   18.628495 H          1 MOL1         0.0794
      82    H39     20.921215   22.803711   17.684766 H          1 MOL1         0.0794
      83    O20     20.840960   24.818678   18.210819 O.3        1 MOL1        -0.5486
      84    H40     21.819598   24.913103   18.202588 H          1 MOL1         0.3769
      85    C25     24.811431   17.786098   22.133097 C.3        1 MOL1         0.2972
      86    H41     25.455484   16.961041   22.462627 H          1 MOL1         0.0751
      87    O21     23.569808   17.299558   21.582486 O.3        1 MOL1        -0.3740
      88    C26     24.499094   18.726418   23.326249 C.3        1 MOL1         0.1003
      89    H42     25.456865   19.118404   23.691999 H          1 MOL1         0.0783
      90    O22     23.865675   17.983514   24.382330 O.3        1 MOL1        -0.5519
      91    H43     23.268920   18.599746   24.881716 H          1 MOL1         0.3769
      92    C27     23.641170   19.936739   22.872402 C.3        1 MOL1         0.1053
      93    H44     22.640651   19.570023   22.611448 H          1 MOL1         0.0783
      94    O23     23.556565   20.895486   23.934118 O.3        1 MOL1        -0.5519
      95    H45     22.961809   20.506247   24.626485 H          1 MOL1         0.3769
      96    C28     24.245415   20.630365   21.622259 C.3        1 MOL1         0.1018
      97    H46     25.112978   21.225381   21.937009 H          1 MOL1         0.0783
      98    C29     24.675417   19.619536   20.524690 C.3        1 MOL1         0.1043
      99    H47     23.768468   19.194645   20.074289 H          1 MOL1         0.0783
     100    O24     25.473889   18.564336   21.114200 O.3        1 MOL1        -0.3740
     101    C30     25.503237   20.259432   19.388091 C.3        1 MOL1         0.0138
     102    H48     24.877179   20.988588   18.856724 H          1 MOL1         0.0794
     103    H49     25.775966   19.476858   18.667403 H          1 MOL1         0.0794
     104    O25     26.678328   20.896515   19.898038 O.3        1 MOL1        -0.5486
     105    H50     27.172519   20.205078   20.392205 H          1 MOL1         0.3769
     106    C31     21.404311   13.786467   21.139709 C.3        1 MOL1         0.2972
     107    H51     21.059722   12.766342   20.928167 H          1 MOL1         0.0751
     108    O26     20.307009   14.677969   21.419144 O.3        1 MOL1        -0.3740
     109    C32     22.360666   13.797410   22.358346 C.3        1 MOL1         0.1003
     110    H52     23.224113   13.168450   22.105433 H          1 MOL1         0.0783
     111    O27     21.720611   13.273536   23.530186 O.3        1 MOL1        -0.5519
     112    H53     22.351803   13.462988   24.260696 H          1 MOL1         0.3769
     113    C33     22.877640   15.227894   22.640418 C.3        1 MOL1         0.1053
     114    H54     22.023663   15.836613   22.966650 H          1 MOL1         0.0783
     115    O28     23.858172   15.173876   23.683212 O.3        1 MOL1        -0.5519
     116    H55     23.930508   16.097307   24.032494 H          1 MOL1         0.3769
     117    C34     23.472919   15.878572   21.361191 C.3        1 MOL1         0.1018
     118    H56     24.455412   15.438725   21.144439 H          1 MOL1         0.0783
     119    C35     22.555628   15.691486   20.121379 C.3        1 MOL1         0.1043
     120    H57     21.675151   16.337429   20.235068 H          1 MOL1         0.0783
     121    O29     22.135198   14.309118   20.011401 O.3        1 MOL1        -0.3740
     122    C36     23.256908   16.070590   18.798242 C.3        1 MOL1         0.0138
     123    H58     23.594791   17.113467   18.856419 H          1 MOL1         0.0794
     124    H59     22.526514   16.004692   17.980892 H          1 MOL1         0.0794
     125    O30     24.368524   15.207667   18.540694 O.3        1 MOL1        -0.5486
     126    H60     24.018907   14.290955   18.604879 H          1 MOL1         0.3769
     127    C1      20.634270   19.493969   25.512083 C.2        1 MOL1         0.6145
     128    O1      19.889341   19.337918   26.459205 O.co2      1 MOL1        -0.6735
     129    O2      21.847856   19.517017   25.601354 O.co2      1 MOL1        -0.6735
     130    C2      20.018522   19.651661   24.125452 C.3        1 MOL1        -0.1985
     131    H1      20.596891   20.402542   23.576639 H          1 MOL1         0.0740
     132    H2      19.007554   20.052051   24.255981 H          1 MOL1         0.0740
     133    C3      19.956808   18.315759   23.342368 C.3        1 MOL1        -0.1882
     134    H3      20.958019   17.868243   23.292248 H          1 MOL1         0.0742
     135    H4      19.332769   17.613813   23.911573 H          1 MOL1         0.0742
     136    C4      19.375801   18.461846   21.916488 C.3        1 MOL1        -0.1880
     137    H5      18.454210   19.056674   21.947800 H          1 MOL1         0.0742
     138    H6      19.093373   17.465040   21.557657 H          1 MOL1         0.0742
     139    C5      20.374802   19.074536   20.909859 C.3        1 MOL1        -0.1880
     140    H7      20.637646   20.095322   21.213660 H          1 MOL1         0.0742
     141    H8      21.301932   18.490956   20.929472 H          1 MOL1         0.0742
     142    C6      19.808601   19.086107   19.473322 C.3        1 MOL1        -0.1856
     143    H9      19.025781   19.852942   19.395745 H          1 MOL1         0.0742
     144    H10     19.333932   18.120329   19.253925 H          1 MOL1         0.0742
     145    C7      20.904942   19.343078   18.418818 C.3        1 MOL1        -0.2871
     146    H11     21.442962   20.277132   18.612629 H          1 MOL1         0.0754
     147    H12     20.467525   19.404060   17.414210 H          1 MOL1         0.0754
     148    H13     21.638917   18.529016   18.417429 H          1 MOL1         0.0754
@<TRIPOS>BOND
    1     1     2    1
    2     1     3    1
    3     1     4    1
    4     4     5    1
    5     4     6    1
    6     6     7    1
    7     4     8    1
    8     8     9    1
    9     8    10    1
   10    10    11    1
   11     8    12    1
   12    12    13    1
   13    12    14    1
   14    14    15    1
   15     1    16    1
   16    14    16    1
   17    14    17    1
   18    17    18    1
   19    17    19    1
   20    17    20    1
   21    20    21    1
   22    22    23    1
   23    22    24    1
   24    22    25    1
   25    25    26    1
   26    25    27    1
   27    27    28    1
   28    25    29    1
   29    29    30    1
   30    29    31    1
   31    31    32    1
   32     3    33    1
   33    29    33    1
   34    33    34    1
   35    33    35    1
   36    35    36    1
   37    22    37    1
   38    35    37    1
   39    35    38    1
   40    38    39    1
   41    38    40    1
   42    38    41    1
   43    41    42    1
   44    43    44    1
   45    43    45    1
   46    43    46    1
   47    46    47    1
   48    46    48    1
   49    48    49    1
   50    46    50    1
   51    50    51    1
   52    50    52    1
   53    52    53    1
   54    24    54    1
   55    50    54    1
   56    54    55    1
   57    54    56    1
   58    56    57    1
   59    43    58    1
   60    56    58    1
   61    56    59    1
   62    59    60    1
   63    59    61    1
   64    59    62    1
   65    62    63    1
   66    64    65    1
   67    64    66    1
   68    64    67    1
   69    67    68    1
   70    67    69    1
   71    69    70    1
   72    67    71    1
   73    71    72    1
   74    71    73    1
   75    73    74    1
   76    45    75    1
   77    71    75    1
   78    75    76    1
   79    75    77    1
   80    77    78    1
   81    64    79    1
   82    77    79    1
   83    77    80    1
   84    80    81    1
   85    80    82    1
   86    80    83    1
   87    83    84    1
   88    85    86    1
   89    85    87    1
   90    85    88    1
   91    88    89    1
   92    88    90    1
   93    90    91    1
   94    88    92    1
   95    92    93    1
   96    92    94    1
   97    94    95    1
   98    66    96    1
   99    92    96    1
  100    96    97    1
  101    96    98    1
  102    98    99    1
  103    85   100    1
  104    98   100    1
  105    98   101    1
  106   101   102    1
  107   101   103    1
  108   101   104    1
  109   104   105    1
  110   106   107    1
  111    12   108    1
  112   106   108    1
  113   106   109    1
  114   109   110    1
  115   109   111    1
  116   111   112    1
  117   109   113    1
  118   113   114    1
  119   113   115    1
  120   115   116    1
  121    87   117    1
  122   113   117    1
  123   117   118    1
  124   117   119    1
  125   119   120    1
  126   106   121    1
  127   119   121    1
  128   119   122    1
  129   122   123    1
  130   122   124    1
  131   122   125    1
  132   125   126    1
  133   127   128    1
  134   127   129    2
  135   127   130    1
  136   130   131    1
  137   130   132    1
  138   130   133    1
  139   133   134    1
  140   133   135    1
  141   133   136    1
  142   136   137    1
  143   136   138    1
  144   136   139    1
  145   139   140    1
  146   139   141    1
  147   139   142    1
  148   142   143    1
  149   142   144    1
  150   142   145    1
  151   145   146    1
  152   145   147    1
  153   145   148    1
@<TRIPOS>SUBSTRUCTURE
       1 MOL1            1 RESIDUE      1      MOL     
       2 MOL1          148 RESIDUE      1      MOL     
@<SCITEGIC>MOL_PROPERTY
VM2 Rank
SciTegic.value.IntegerValue
3

@<SCITEGIC>MOL_PROPERTY
Conf_Id
SciTegic.value.IntegerValue
25475

@<SCITEGIC>MOL_PROPERTY
Probability
SciTegic.value.DoubleValue
2.86

@<SCITEGIC>MOL_PROPERTY
Sum Probability
SciTegic.value.DoubleValue
9.82

@<SCITEGIC>MOL_PROPERTY
Delta G
SciTegic.value.DoubleValue
0.191

@<SCITEGIC>MOL_PROPERTY
G
SciTegic.value.DoubleValue
497.210

@<SCITEGIC>MOL_PROPERTY
E
SciTegic.value.DoubleValue
304.981

@<SCITEGIC>MOL_PROPERTY
-TS
SciTegic.value.DoubleValue
192.229

@<SCITEGIC>MOL_PROPERTY
U+W
SciTegic.value.DoubleValue
174.421

@<SCITEGIC>MOL_PROPERTY
U
SciTegic.value.DoubleValue
247.406

@<SCITEGIC>MOL_PROPERTY
W
SciTegic.value.DoubleValue
-72.985

@<SCITEGIC>MOL_PROPERTY
W(PB)
SciTegic.value.DoubleValue
-79.176

@<SCITEGIC>MOL_PROPERTY
W(SA)
SciTegic.value.DoubleValue
6.191

@<SCITEGIC>MOL_PROPERTY
Valence
SciTegic.value.DoubleValue
150.786

@<SCITEGIC>MOL_PROPERTY
Coulomb
SciTegic.value.DoubleValue
122.356

@<SCITEGIC>MOL_PROPERTY
VdW
SciTegic.value.DoubleValue
-25.736

@<SCITEGIC>MOL_PROPERTY
VdW6
SciTegic.value.DoubleValue
-182.197

@<SCITEGIC>MOL_PROPERTY
VdW12
SciTegic.value.DoubleValue
156.462

@<SCITEGIC>MOL_PROPERTY
Bond
SciTegic.value.DoubleValue
4.517

@<SCITEGIC>MOL_PROPERTY
Angle
SciTegic.value.DoubleValue
11.598

@<SCITEGIC>MOL_PROPERTY
Pdih
SciTegic.value.DoubleValue
134.670

@<SCITEGIC>MOL_PROPERTY
Idih
SciTegic.value.DoubleValue
0.001

@<SCITEGIC>MOL_PROPERTY
Tether
SciTegic.value.DoubleValue
0.000

@<TRIPOS>MOLECULE
CD_guest-s21_vm2_single.mol2 : vm2 host+ligand conformer 4
         148         153           2
SMALL
USER_CHARGES
 
@<TRIPOS>ATOM
       1    C1      16.263344   15.037996   21.479480 C.3        1 MOL1         0.2972
       2    H1      15.177190   14.882713   21.493106 H          1 MOL1         0.0751
       3    O1      16.601446   16.435538   21.373771 O.3        1 MOL1        -0.3740
       4    C2      16.893891   14.461572   22.771590 C.3        1 MOL1         0.1003
       5    H2      16.675353   13.385876   22.788167 H          1 MOL1         0.0783
       6    O2      16.336995   15.070315   23.944440 O.3        1 MOL1        -0.5519
       7    H3      16.923974   14.775957   24.676937 H          1 MOL1         0.3769
       8    C3      18.430095   14.630494   22.765877 C.3        1 MOL1         0.1053
       9    H4      18.657952   15.700296   22.852558 H          1 MOL1         0.0783
      10    O3      18.987204   13.922587   23.879670 O.3        1 MOL1        -0.5519
      11    H5      19.959714   13.852003   23.714785 H          1 MOL1         0.3769
      12    C4      19.055589   14.103421   21.450309 C.3        1 MOL1         0.1018
      13    H6      19.082764   13.006465   21.492682 H          1 MOL1         0.0783
      14    C5      18.283277   14.565524   20.183361 C.3        1 MOL1         0.1043
      15    H7      18.480674   15.634931   20.032290 H          1 MOL1         0.0783
      16    O4      16.860607   14.349781   20.360359 O.3        1 MOL1        -0.3740
      17    C6      18.714019   13.824226   18.898585 C.3        1 MOL1         0.0138
      18    H8      19.767364   14.051383   18.689371 H          1 MOL1         0.0794
      19    H9      18.123609   14.207466   18.055563 H          1 MOL1         0.0794
      20    O5      18.530303   12.411705   19.031959 O.3        1 MOL1        -0.5486
      21    H10     17.581910   12.278993   19.254384 H          1 MOL1         0.3769
      22    C7      14.918063   20.204430   20.857988 C.3        1 MOL1         0.2972
      23    H11     14.261985   21.046180   20.601440 H          1 MOL1         0.0751
      24    O6      16.224883   20.654608   21.264145 O.3        1 MOL1        -0.3740
      25    C8      14.306008   19.358236   22.005280 C.3        1 MOL1         0.1003
      26    H12     13.332649   18.989767   21.656153 H          1 MOL1         0.0783
      27    O7      14.115887   20.138617   23.192920 O.3        1 MOL1        -0.5519
      28    H13     13.848306   19.485591   23.878354 H          1 MOL1         0.3769
      29    C9      15.192251   18.130877   22.325618 C.3        1 MOL1         0.1053
      30    H14     16.139155   18.492950   22.750902 H          1 MOL1         0.0783
      31    O8      14.520293   17.292568   23.273822 O.3        1 MOL1        -0.5519
      32    H15     15.160002   16.578778   23.521271 H          1 MOL1         0.3769
      33    C10     15.518147   17.324961   21.043374 C.3        1 MOL1         0.1018
      34    H16     14.622689   16.780510   20.715511 H          1 MOL1         0.0783
      35    C11     16.002285   18.235843   19.885110 C.3        1 MOL1         0.1043
      36    H17     16.998670   18.615968   20.137139 H          1 MOL1         0.0783
      37    O9      15.081874   19.341698   19.712880 O.3        1 MOL1        -0.3740
      38    C12     16.101211   17.495981   18.532911 C.3        1 MOL1         0.0138
      39    H18     16.800250   16.655810   18.632051 H          1 MOL1         0.0794
      40    H19     16.518051   18.183943   17.785246 H          1 MOL1         0.0794
      41    O10     14.818394   17.022646   18.112296 O.3        1 MOL1        -0.5486
      42    H20     14.222484   17.804288   18.131439 H          1 MOL1         0.3769
      43    C13     18.491685   24.105556   21.643097 C.3        1 MOL1         0.2972
      44    H21     18.853730   25.134827   21.759765 H          1 MOL1         0.0751
      45    O11     19.566914   23.189914   21.353993 O.3        1 MOL1        -0.3740
      46    C14     17.765456   23.647764   22.933172 C.3        1 MOL1         0.1003
      47    H22     16.907729   24.317419   23.078253 H          1 MOL1         0.0783
      48    O12     18.618162   23.728993   24.082370 O.3        1 MOL1        -0.5519
      49    H23     18.139557   23.223947   24.778361 H          1 MOL1         0.3769
      50    C15     17.219344   22.210736   22.780109 C.3        1 MOL1         0.1053
      51    H24     18.071897   21.522120   22.708370 H          1 MOL1         0.0783
      52    O13     16.416193   21.888308   23.921594 O.3        1 MOL1        -0.5519
      53    H25     15.820471   21.148772   23.648152 H          1 MOL1         0.3769
      54    C16     16.369770   22.068331   21.494400 C.3        1 MOL1         0.1018
      55    H26     15.400244   22.555443   21.664962 H          1 MOL1         0.0783
      56    C17     17.064293   22.687592   20.247622 C.3        1 MOL1         0.1043
      57    H27     17.912287   22.047728   19.969768 H          1 MOL1         0.0783
      58    O14     17.540760   24.021917   20.559375 O.3        1 MOL1        -0.3740
      59    C18     16.138944   22.796960   19.015474 C.3        1 MOL1         0.0138
      60    H28     15.856505   21.787933   18.687501 H          1 MOL1         0.0794
      61    H29     16.700146   23.260909   18.193346 H          1 MOL1         0.0794
      62    O15     14.969635   23.565309   19.314206 O.3        1 MOL1        -0.5486
      63    H30     15.288986   24.441838   19.624254 H          1 MOL1         0.3769
      64    C19     23.617488   22.804031   20.856962 C.3        1 MOL1         0.2972
      65    H31     24.689198   22.883062   20.633565 H          1 MOL1         0.0751
      66    O16     23.234600   21.436601   21.125835 O.3        1 MOL1        -0.3740
      67    C20     23.231653   23.708606   22.057317 C.3        1 MOL1         0.1003
      68    H32     23.419705   24.746201   21.753182 H          1 MOL1         0.0783
      69    O17     24.039563   23.414611   23.207220 O.3        1 MOL1        -0.5519
      70    H33     23.747915   22.528944   23.538953 H          1 MOL1         0.3769
      71    C21     21.717075   23.574309   22.367028 C.3        1 MOL1         0.1053
      72    H34     21.535684   22.558083   22.744403 H          1 MOL1         0.0783
      73    O18     21.322819   24.535969   23.352933 O.3        1 MOL1        -0.5519
      74    H35     20.422920   24.265345   23.660996 H          1 MOL1         0.3769
      75    C22     20.854809   23.779482   21.091073 C.3        1 MOL1         0.1018
      76    H36     20.776867   24.854021   20.878969 H          1 MOL1         0.0783
      77    C23     21.416841   23.067051   19.829831 C.3        1 MOL1         0.1043
      78    H37     21.200730   21.996107   19.908329 H          1 MOL1         0.0783
      79    O19     22.848314   23.263775   19.727274 O.3        1 MOL1        -0.3740
      80    C24     20.773258   23.575471   18.520885 C.3        1 MOL1         0.0138
      81    H38     19.687325   23.419069   18.571791 H          1 MOL1         0.0794
      82    H39     21.154187   22.974827   17.684202 H          1 MOL1         0.0794
      83    O20     21.063402   24.960394   18.308987 O.3        1 MOL1        -0.5486
      84    H40     22.041971   25.043168   18.356523 H          1 MOL1         0.3769
      85    C25     24.831271   17.747867   22.163982 C.3        1 MOL1         0.2972
      86    H41     25.467665   16.918321   22.496625 H          1 MOL1         0.0751
      87    O21     23.630474   17.272680   21.518456 O.3        1 MOL1        -0.3740
      88    C26     24.435072   18.640476   23.369444 C.3        1 MOL1         0.1003
      89    H42     25.360029   19.061275   23.784492 H          1 MOL1         0.0783
      90    O22     23.791396   17.848384   24.381086 O.3        1 MOL1        -0.5519
      91    H43     23.231167   18.450922   24.934853 H          1 MOL1         0.3769
      92    C27     23.550499   19.824949   22.899260 C.3        1 MOL1         0.1053
      93    H44     22.599106   19.422122   22.530025 H          1 MOL1         0.0783
      94    O23     23.321085   20.730143   23.988339 O.3        1 MOL1        -0.5519
      95    H45     22.701912   20.282646   24.623179 H          1 MOL1         0.3769
      96    C28     24.233090   20.592595   21.734661 C.3        1 MOL1         0.1018
      97    H46     25.064789   21.179308   22.146549 H          1 MOL1         0.0783
      98    C29     24.766314   19.644648   20.624367 C.3        1 MOL1         0.1043
      99    H47     23.904677   19.225678   20.087405 H          1 MOL1         0.0783
     100    O24     25.542112   18.574769   21.218906 O.3        1 MOL1        -0.3740
     101    C30     25.663742   20.353009   19.584866 C.3        1 MOL1         0.0138
     102    H48     25.063068   21.091188   19.037070 H          1 MOL1         0.0794
     103    H49     26.011462   19.610064   18.854665 H          1 MOL1         0.0794
     104    O25     26.779383   20.992057   20.212357 O.3        1 MOL1        -0.5486
     105    H50     27.255133   20.289458   20.708851 H          1 MOL1         0.3769
     106    C31     21.452395   13.776230   21.050201 C.3        1 MOL1         0.2972
     107    H51     21.089827   12.766640   20.818542 H          1 MOL1         0.0751
     108    O26     20.373710   14.675333   21.377301 O.3        1 MOL1        -0.3740
     109    C32     22.436368   13.748125   22.245247 C.3        1 MOL1         0.1003
     110    H52     23.291205   13.123802   21.954379 H          1 MOL1         0.0783
     111    O27     21.823930   13.194925   23.417939 O.3        1 MOL1        -0.5519
     112    H53     22.480110   13.348655   24.134642 H          1 MOL1         0.3769
     113    C33     22.963199   15.169868   22.551576 C.3        1 MOL1         0.1053
     114    H54     22.118043   15.770626   22.912066 H          1 MOL1         0.0783
     115    O28     23.964566   15.083299   23.571864 O.3        1 MOL1        -0.5519
     116    H55     24.005386   15.982871   23.982484 H          1 MOL1         0.3769
     117    C34     23.528720   15.855784   21.275346 C.3        1 MOL1         0.1018
     118    H56     24.505931   15.423123   21.023038 H          1 MOL1         0.0783
     119    C35     22.583717   15.701856   20.052203 C.3        1 MOL1         0.1043
     120    H57     21.707814   16.348215   20.192572 H          1 MOL1         0.0783
     121    O29     22.170766   14.319208   19.922763 O.3        1 MOL1        -0.3740
     122    C36     23.275812   16.107239   18.734445 C.3        1 MOL1         0.0138
     123    H58     24.134838   15.446315   18.557813 H          1 MOL1         0.0794
     124    H59     23.656036   17.133248   18.826152 H          1 MOL1         0.0794
     125    O30     22.349337   16.025250   17.649888 O.3        1 MOL1        -0.5486
     126    H60     21.951483   15.128609   17.702207 H          1 MOL1         0.3769
     127    C1      20.601798   18.753289   25.641747 C.2        1 MOL1         0.6145
     128    O1      21.722019   19.226122   25.716301 O.co2      1 MOL1        -0.6735
     129    O2      19.775324   18.814957   26.530123 O.co2      1 MOL1        -0.6735
     130    C2      20.223627   18.047279   24.344877 C.3        1 MOL1        -0.1985
     131    H1      19.403954   17.347343   24.545669 H          1 MOL1         0.0740
     132    H2      21.088556   17.450146   24.040028 H          1 MOL1         0.0740
     133    C3      19.827815   19.032085   23.217591 C.3        1 MOL1        -0.1882
     134    H3      18.821951   19.426458   23.413395 H          1 MOL1         0.0742
     135    H4      20.508226   19.893732   23.233157 H          1 MOL1         0.0742
     136    C4      19.876793   18.365284   21.826654 C.3        1 MOL1        -0.1880
     137    H5      19.095592   17.599286   21.755317 H          1 MOL1         0.0742
     138    H6      20.840927   17.858060   21.696486 H          1 MOL1         0.0742
     139    C5      19.695352   19.399206   20.700217 C.3        1 MOL1        -0.1880
     140    H7      18.737756   19.915217   20.833542 H          1 MOL1         0.0742
     141    H8      20.479473   20.160231   20.784797 H          1 MOL1         0.0742
     142    C6      19.757373   18.749345   19.302541 C.3        1 MOL1        -0.1856
     143    H9      19.075199   17.891106   19.258156 H          1 MOL1         0.0742
     144    H10     20.768067   18.358055   19.122295 H          1 MOL1         0.0742
     145    C7      19.387017   19.754463   18.194138 C.3        1 MOL1        -0.2871
     146    H11     18.370319   20.141926   18.338631 H          1 MOL1         0.0754
     147    H12     19.431043   19.273845   17.208449 H          1 MOL1         0.0754
     148    H13     20.082325   20.602408   18.188274 H          1 MOL1         0.0754
@<TRIPOS>BOND
    1     1     2    1
    2     1     3    1
    3     1     4    1
    4     4     5    1
    5     4     6    1
    6     6     7    1
    7     4     8    1
    8     8     9    1
    9     8    10    1
   10    10    11    1
   11     8    12    1
   12    12    13    1
   13    12    14    1
   14    14    15    1
   15     1    16    1
   16    14    16    1
   17    14    17    1
   18    17    18    1
   19    17    19    1
   20    17    20    1
   21    20    21    1
   22    22    23    1
   23    22    24    1
   24    22    25    1
   25    25    26    1
   26    25    27    1
   27    27    28    1
   28    25    29    1
   29    29    30    1
   30    29    31    1
   31    31    32    1
   32     3    33    1
   33    29    33    1
   34    33    34    1
   35    33    35    1
   36    35    36    1
   37    22    37    1
   38    35    37    1
   39    35    38    1
   40    38    39    1
   41    38    40    1
   42    38    41    1
   43    41    42    1
   44    43    44    1
   45    43    45    1
   46    43    46    1
   47    46    47    1
   48    46    48    1
   49    48    49    1
   50    46    50    1
   51    50    51    1
   52    50    52    1
   53    52    53    1
   54    24    54    1
   55    50    54    1
   56    54    55    1
   57    54    56    1
   58    56    57    1
   59    43    58    1
   60    56    58    1
   61    56    59    1
   62    59    60    1
   63    59    61    1
   64    59    62    1
   65    62    63    1
   66    64    65    1
   67    64    66    1
   68    64    67    1
   69    67    68    1
   70    67    69    1
   71    69    70    1
   72    67    71    1
   73    71    72    1
   74    71    73    1
   75    73    74    1
   76    45    75    1
   77    71    75    1
   78    75    76    1
   79    75    77    1
   80    77    78    1
   81    64    79    1
   82    77    79    1
   83    77    80    1
   84    80    81    1
   85    80    82    1
   86    80    83    1
   87    83    84    1
   88    85    86    1
   89    85    87    1
   90    85    88    1
   91    88    89    1
   92    88    90    1
   93    90    91    1
   94    88    92    1
   95    92    93    1
   96    92    94    1
   97    94    95    1
   98    66    96    1
   99    92    96    1
  100    96    97    1
  101    96    98    1
  102    98    99    1
  103    85   100    1
  104    98   100    1
  105    98   101    1
  106   101   102    1
  107   101   103    1
  108   101   104    1
  109   104   105    1
  110   106   107    1
  111    12   108    1
  112   106   108    1
  113   106   109    1
  114   109   110    1
  115   109   111    1
  116   111   112    1
  117   109   113    1
  118   113   114    1
  119   113   115    1
  120   115   116    1
  121    87   117    1
  122   113   117    1
  123   117   118    1
  124   117   119    1
  125   119   120    1
  126   106   121    1
  127   119   121    1
  128   119   122    1
  129   122   123    1
  130   122   124    1
  131   122   125    1
  132   125   126    1
  133   127   128    1
  134   127   129    2
  135   127   130    1
  136   130   131    1
  137   130   132    1
  138   130   133    1
  139   133   134    1
  140   133   135    1
  141   133   136    1
  142   136   137    1
  143   136   138    1
  144   136   139    1
  145   139   140    1
  146   139   141    1
  147   139   142    1
  148   142   143    1
  149   142   144    1
  150   142   145    1
  151   145   146    1
  152   145   147    1
  153   145   148    1
@<TRIPOS>SUBSTRUCTURE
       1 MOL1            1 RESIDUE      1      MOL     
       2 MOL1          148 RESIDUE      1      MOL     
@<SCITEGIC>MOL_PROPERTY
VM2 Rank
SciTegic.value.IntegerValue
4

@<SCITEGIC>MOL_PROPERTY
Conf_Id
SciTegic.value.IntegerValue
25413

@<SCITEGIC>MOL_PROPERTY
Probability
SciTegic.value.DoubleValue
2.79

@<SCITEGIC>MOL_PROPERTY
Sum Probability
SciTegic.value.DoubleValue
12.61

@<SCITEGIC>MOL_PROPERTY
Delta G
SciTegic.value.DoubleValue
0.206

@<SCITEGIC>MOL_PROPERTY
G
SciTegic.value.DoubleValue
497.225

@<SCITEGIC>MOL_PROPERTY
E
SciTegic.value.DoubleValue
305.267

@<SCITEGIC>MOL_PROPERTY
-TS
SciTegic.value.DoubleValue
191.957

@<SCITEGIC>MOL_PROPERTY
U+W
SciTegic.value.DoubleValue
174.708

@<SCITEGIC>MOL_PROPERTY
U
SciTegic.value.DoubleValue
248.545

@<SCITEGIC>MOL_PROPERTY
W
SciTegic.value.DoubleValue
-73.837

@<SCITEGIC>MOL_PROPERTY
W(PB)
SciTegic.value.DoubleValue
-79.961

@<SCITEGIC>MOL_PROPERTY
W(SA)
SciTegic.value.DoubleValue
6.124

@<SCITEGIC>MOL_PROPERTY
Valence
SciTegic.value.DoubleValue
150.069

@<SCITEGIC>MOL_PROPERTY
Coulomb
SciTegic.value.DoubleValue
123.696

@<SCITEGIC>MOL_PROPERTY
VdW
SciTegic.value.DoubleValue
-25.220

@<SCITEGIC>MOL_PROPERTY
VdW6
SciTegic.value.DoubleValue
-179.771

@<SCITEGIC>MOL_PROPERTY
VdW12
SciTegic.value.DoubleValue
154.552

@<SCITEGIC>MOL_PROPERTY
Bond
SciTegic.value.DoubleValue
4.505

@<SCITEGIC>MOL_PROPERTY
Angle
SciTegic.value.DoubleValue
11.033

@<SCITEGIC>MOL_PROPERTY
Pdih
SciTegic.value.DoubleValue
134.531

@<SCITEGIC>MOL_PROPERTY
Idih
SciTegic.value.DoubleValue
0.000

@<SCITEGIC>MOL_PROPERTY
Tether
SciTegic.value.DoubleValue
0.000

@<TRIPOS>MOLECULE
CD_guest-s21_vm2_single.mol2 : vm2 host+ligand conformer 5
         148         153           2
SMALL
USER_CHARGES
 
@<TRIPOS>ATOM
       1    C1      16.205667   15.069979   21.292873 C.3        1 MOL1         0.2972
       2    H1      15.120012   14.920533   21.238776 H          1 MOL1         0.0751
       3    O1      16.553978   16.468880   21.286751 O.3        1 MOL1        -0.3740
       4    C2      16.764059   14.418273   22.582405 C.3        1 MOL1         0.1003
       5    H2      16.545125   13.344018   22.526001 H          1 MOL1         0.0783
       6    O2      16.144127   14.962291   23.755530 O.3        1 MOL1        -0.5519
       7    H3      16.687482   14.622268   24.501780 H          1 MOL1         0.3769
       8    C3      18.298164   14.584087   22.669365 C.3        1 MOL1         0.1053
       9    H4      18.518964   15.647281   22.827539 H          1 MOL1         0.0783
      10    O3      18.798284   13.814417   23.769491 O.3        1 MOL1        -0.5519
      11    H5      19.783658   13.801578   23.682639 H          1 MOL1         0.3769
      12    C4      18.994735   14.130487   21.362574 C.3        1 MOL1         0.1018
      13    H6      19.020254   13.032879   21.346350 H          1 MOL1         0.0783
      14    C5      18.291904   14.658550   20.080749 C.3        1 MOL1         0.1043
      15    H7      18.500106   15.732771   19.990278 H          1 MOL1         0.0783
      16    O4      16.860994   14.442231   20.170853 O.3        1 MOL1        -0.3740
      17    C6      18.786097   13.973973   18.787210 C.3        1 MOL1         0.0138
      18    H8      19.853276   14.191305   18.649569 H          1 MOL1         0.0794
      19    H9      18.251280   14.408564   17.932132 H          1 MOL1         0.0794
      20    O5      18.572101   12.560285   18.839084 O.3        1 MOL1        -0.5486
      21    H10     17.611553   12.435776   19.007794 H          1 MOL1         0.3769
      22    C7      14.941027   20.278558   20.834250 C.3        1 MOL1         0.2972
      23    H11     14.299267   21.133787   20.586203 H          1 MOL1         0.0751
      24    O6      16.249035   20.706763   21.259905 O.3        1 MOL1        -0.3740
      25    C8      14.300518   19.414601   21.953472 C.3        1 MOL1         0.1003
      26    H12     13.326135   19.071705   21.581813 H          1 MOL1         0.0783
      27    O7      14.105267   20.166418   23.158344 O.3        1 MOL1        -0.5519
      28    H13     13.802804   19.503095   23.818960 H          1 MOL1         0.3769
      29    C9      15.159461   18.163667   22.255376 C.3        1 MOL1         0.1053
      30    H14     16.103890   18.496717   22.708263 H          1 MOL1         0.0783
      31    O8      14.455183   17.311461   23.166892 O.3        1 MOL1        -0.5519
      32    H15     15.065219   16.562002   23.381703 H          1 MOL1         0.3769
      33    C10     15.494231   17.386333   20.958276 C.3        1 MOL1         0.1018
      34    H16     14.594331   16.867741   20.601976 H          1 MOL1         0.0783
      35    C11     16.015584   18.318446   19.833229 C.3        1 MOL1         0.1043
      36    H17     17.013196   18.678811   20.112305 H          1 MOL1         0.0783
      37    O9      15.111802   19.440029   19.672150 O.3        1 MOL1        -0.3740
      38    C12     16.130753   17.610947   18.465077 C.3        1 MOL1         0.0138
      39    H18     16.821509   16.762889   18.555043 H          1 MOL1         0.0794
      40    H19     16.564991   18.313373   17.741162 H          1 MOL1         0.0794
      41    O10     14.851422   17.158494   18.011897 O.3        1 MOL1        -0.5486
      42    H20     14.262213   17.945101   18.035185 H          1 MOL1         0.3769
      43    C13     18.498737   24.101149   21.936506 C.3        1 MOL1         0.2972
      44    H21     18.888675   25.103993   22.152317 H          1 MOL1         0.0751
      45    O11     19.534702   23.209026   21.484685 O.3        1 MOL1        -0.3740
      46    C14     17.845174   23.498181   23.202532 C.3        1 MOL1         0.1003
      47    H22     17.003193   24.146302   23.478400 H          1 MOL1         0.0783
      48    O12     18.773474   23.443558   24.294596 O.3        1 MOL1        -0.5519
      49    H23     18.339117   22.860653   24.957447 H          1 MOL1         0.3769
      50    C15     17.283074   22.088985   22.908404 C.3        1 MOL1         0.1053
      51    H24     18.127711   21.416454   22.709032 H          1 MOL1         0.0783
      52    O13     16.541122   21.632182   24.045017 O.3        1 MOL1        -0.5519
      53    H25     15.892438   20.967687   23.709230 H          1 MOL1         0.3769
      54    C16     16.370039   22.085878   21.658082 C.3        1 MOL1         0.1018
      55    H26     15.398913   22.518289   21.934735 H          1 MOL1         0.0783
      56    C17     16.983909   22.868508   20.460926 C.3        1 MOL1         0.1043
      57    H27     17.809001   22.271557   20.049193 H          1 MOL1         0.0783
      58    O14     17.486662   24.154388   20.908212 O.3        1 MOL1        -0.3740
      59    C18     15.984083   23.130641   19.312644 C.3        1 MOL1         0.0138
      60    H28     15.686685   22.171192   18.869294 H          1 MOL1         0.0794
      61    H29     16.491863   23.707146   18.527825 H          1 MOL1         0.0794
      62    O15     14.831814   23.837429   19.780913 O.3        1 MOL1        -0.5486
      63    H30     15.164532   24.670015   20.184130 H          1 MOL1         0.3769
      64    C19     23.548987   22.866504   20.756235 C.3        1 MOL1         0.2972
      65    H31     24.603367   22.953107   20.463702 H          1 MOL1         0.0751
      66    O16     23.196947   21.498679   21.064905 O.3        1 MOL1        -0.3740
      67    C20     23.223242   23.789605   21.961195 C.3        1 MOL1         0.1003
      68    H32     23.354455   24.824400   21.619941 H          1 MOL1         0.0783
      69    O17     24.122343   23.555567   23.054719 O.3        1 MOL1        -0.5519
      70    H33     23.888020   22.670637   23.429511 H          1 MOL1         0.3769
      71    C21     21.736774   23.613749   22.372486 C.3        1 MOL1         0.1053
      72    H34     21.605975   22.589432   22.747997 H          1 MOL1         0.0783
      73    O18     21.372408   24.550041   23.393882 O.3        1 MOL1        -0.5519
      74    H35     20.529089   24.213761   23.785780 H          1 MOL1         0.3769
      75    C22     20.797918   23.807325   21.149732 C.3        1 MOL1         0.1018
      76    H36     20.697319   24.878803   20.930569 H          1 MOL1         0.0783
      77    C23     21.282633   23.084982   19.865419 C.3        1 MOL1         0.1043
      78    H37     21.069536   22.014645   19.969276 H          1 MOL1         0.0783
      79    O19     22.702625   23.302790   19.673145 O.3        1 MOL1        -0.3740
      80    C24     20.554819   23.609706   18.609587 C.3        1 MOL1         0.0138
      81    H38     20.791640   24.673325   18.473432 H          1 MOL1         0.0794
      82    H39     19.470170   23.525581   18.757373 H          1 MOL1         0.0794
      83    O20     20.949802   22.860409   17.459639 O.3        1 MOL1        -0.5486
      84    H40     21.930977   22.814328   17.490356 H          1 MOL1         0.3769
      85    C25     24.809165   17.818366   22.120091 C.3        1 MOL1         0.2972
      86    H41     25.460184   16.996164   22.443019 H          1 MOL1         0.0751
      87    O21     23.570749   17.325520   21.568435 O.3        1 MOL1        -0.3740
      88    C26     24.492322   18.749035   23.319909 C.3        1 MOL1         0.1003
      89    H42     25.448488   19.143429   23.687290 H          1 MOL1         0.0783
      90    O22     23.864111   17.996320   24.372146 O.3        1 MOL1        -0.5519
      91    H43     23.273684   18.608337   24.883973 H          1 MOL1         0.3769
      92    C27     23.627861   19.958578   22.876373 C.3        1 MOL1         0.1053
      93    H44     22.628795   19.589298   22.614267 H          1 MOL1         0.0783
      94    O23     23.540848   20.906107   23.947676 O.3        1 MOL1        -0.5519
      95    H45     22.952607   20.506695   24.639734 H          1 MOL1         0.3769
      96    C28     24.228917   20.664771   21.630917 C.3        1 MOL1         0.1018
      97    H46     25.098923   21.254340   21.949064 H          1 MOL1         0.0783
      98    C29     24.656241   19.662389   20.524871 C.3        1 MOL1         0.1043
      99    H47     23.748466   19.236177   20.077303 H          1 MOL1         0.0783
     100    O24     25.463166   18.607687   21.104078 O.3        1 MOL1        -0.3740
     101    C30     25.474706   20.313048   19.387611 C.3        1 MOL1         0.0138
     102    H48     24.842892   21.044179   18.865876 H          1 MOL1         0.0794
     103    H49     25.745047   19.536623   18.659428 H          1 MOL1         0.0794
     104    O25     26.651159   20.950084   19.894550 O.3        1 MOL1        -0.5486
     105    H50     27.149920   20.256884   20.381583 H          1 MOL1         0.3769
     106    C31     21.411741   13.811775   21.119690 C.3        1 MOL1         0.2972
     107    H51     21.067139   12.791760   20.907782 H          1 MOL1         0.0751
     108    O26     20.314313   14.703854   21.397420 O.3        1 MOL1        -0.3740
     109    C32     22.365757   13.821383   22.339854 C.3        1 MOL1         0.1003
     110    H52     23.229326   13.192211   22.087879 H          1 MOL1         0.0783
     111    O27     21.723371   13.296569   23.510023 O.3        1 MOL1        -0.5519
     112    H53     22.352825   13.486120   24.241994 H          1 MOL1         0.3769
     113    C33     22.883124   15.251205   22.624043 C.3        1 MOL1         0.1053
     114    H54     22.029439   15.860144   22.950867 H          1 MOL1         0.0783
     115    O28     23.863365   15.194042   23.666868 O.3        1 MOL1        -0.5519
     116    H55     23.935664   16.116508   24.018648 H          1 MOL1         0.3769
     117    C34     23.479975   15.904095   21.346676 C.3        1 MOL1         0.1018
     118    H56     24.464765   15.467798   21.133223 H          1 MOL1         0.0783
     119    C35     22.568072   15.715169   20.103105 C.3        1 MOL1         0.1043
     120    H57     21.688005   16.362781   20.211100 H          1 MOL1         0.0783
     121    O29     22.145969   14.333301   19.993139 O.3        1 MOL1        -0.3740
     122    C36     23.277321   16.090308   18.783008 C.3        1 MOL1         0.0138
     123    H58     23.620100   17.131600   18.842290 H          1 MOL1         0.0794
     124    H59     22.550530   16.027411   17.962215 H          1 MOL1         0.0794
     125    O30     24.386065   15.221941   18.531299 O.3        1 MOL1        -0.5486
     126    H60     24.031923   14.306962   18.595760 H          1 MOL1         0.3769
     127    C1      20.642375   19.503183   25.555238 C.2        1 MOL1         0.6145
     128    O1      21.857129   19.513891   25.630471 O.co2      1 MOL1        -0.6735
     129    O2      19.906595   19.353900   26.510581 O.co2      1 MOL1        -0.6735
     130    C2      20.012921   19.669063   24.175861 C.3        1 MOL1        -0.1985
     131    H1      20.596680   20.410476   23.620065 H          1 MOL1         0.0740
     132    H2      19.009740   20.085269   24.316801 H          1 MOL1         0.0740
     133    C3      19.922785   18.333608   23.394778 C.3        1 MOL1        -0.1882
     134    H3      20.914325   17.864491   23.347091 H          1 MOL1         0.0742
     135    H4      19.282442   17.645657   23.963125 H          1 MOL1         0.0742
     136    C4      19.349254   18.490603   21.967117 C.3        1 MOL1        -0.1880
     137    H5      18.438562   19.102003   21.994025 H          1 MOL1         0.0742
     138    H6      19.050878   17.499286   21.606740 H          1 MOL1         0.0742
     139    C5      20.363920   19.084150   20.965261 C.3        1 MOL1        -0.1880
     140    H7      20.635392   20.105473   21.260812 H          1 MOL1         0.0742
     141    H8      21.283575   18.489725   20.998125 H          1 MOL1         0.0742
     142    C6      19.814110   19.089653   19.523132 C.3        1 MOL1        -0.1856
     143    H9      19.033956   19.857840   19.432589 H          1 MOL1         0.0742
     144    H10     19.342468   18.123432   19.299905 H          1 MOL1         0.0742
     145    C7      20.925141   19.346612   18.485064 C.3        1 MOL1        -0.2871
     146    H11     21.457554   20.281875   18.690278 H          1 MOL1         0.0754
     147    H12     20.502064   19.413349   17.474666 H          1 MOL1         0.0754
     148    H13     21.659666   18.533579   18.491777 H          1 MOL1         0.0754
@<TRIPOS>BOND
    1     1     2    1
    2     1     3    1
    3     1     4    1
    4     4     5    1
    5     4     6    1
    6     6     7    1
    7     4     8    1
    8     8     9    1
    9     8    10    1
   10    10    11    1
   11     8    12    1
   12    12    13    1
   13    12    14    1
   14    14    15    1
   15     1    16    1
   16    14    16    1
   17    14    17    1
   18    17    18    1
   19    17    19    1
   20    17    20    1
   21    20    21    1
   22    22    23    1
   23    22    24    1
   24    22    25    1
   25    25    26    1
   26    25    27    1
   27    27    28    1
   28    25    29    1
   29    29    30    1
   30    29    31    1
   31    31    32    1
   32     3    33    1
   33    29    33    1
   34    33    34    1
   35    33    35    1
   36    35    36    1
   37    22    37    1
   38    35    37    1
   39    35    38    1
   40    38    39    1
   41    38    40    1
   42    38    41    1
   43    41    42    1
   44    43    44    1
   45    43    45    1
   46    43    46    1
   47    46    47    1
   48    46    48    1
   49    48    49    1
   50    46    50    1
   51    50    51    1
   52    50    52    1
   53    52    53    1
   54    24    54    1
   55    50    54    1
   56    54    55    1
   57    54    56    1
   58    56    57    1
   59    43    58    1
   60    56    58    1
   61    56    59    1
   62    59    60    1
   63    59    61    1
   64    59    62    1
   65    62    63    1
   66    64    65    1
   67    64    66    1
   68    64    67    1
   69    67    68    1
   70    67    69    1
   71    69    70    1
   72    67    71    1
   73    71    72    1
   74    71    73    1
   75    73    74    1
   76    45    75    1
   77    71    75    1
   78    75    76    1
   79    75    77    1
   80    77    78    1
   81    64    79    1
   82    77    79    1
   83    77    80    1
   84    80    81    1
   85    80    82    1
   86    80    83    1
   87    83    84    1
   88    85    86    1
   89    85    87    1
   90    85    88    1
   91    88    89    1
   92    88    90    1
   93    90    91    1
   94    88    92    1
   95    92    93    1
   96    92    94    1
   97    94    95    1
   98    66    96    1
   99    92    96    1
  100    96    97    1
  101    96    98    1
  102    98    99    1
  103    85   100    1
  104    98   100    1
  105    98   101    1
  106   101   102    1
  107   101   103    1
  108   101   104    1
  109   104   105    1
  110   106   107    1
  111    12   108    1
  112   106   108    1
  113   106   109    1
  114   109   110    1
  115   109   111    1
  116   111   112    1
  117   109   113    1
  118   113   114    1
  119   113   115    1
  120   115   116    1
  121    87   117    1
  122   113   117    1
  123   117   118    1
  124   117   119    1
  125   119   120    1
  126   106   121    1
  127   119   121    1
  128   119   122    1
  129   122   123    1
  130   122   124    1
  131   122   125    1
  132   125   126    1
  133   127   128    1
  134   127   129    2
  135   127   130    1
  136   130   131    1
  137   130   132    1
  138   130   133    1
  139   133   134    1
  140   133   135    1
  141   133   136    1
  142   136   137    1
  143   136   138    1
  144   136   139    1
  145   139   140    1
  146   139   141    1
  147   139   142    1
  148   142   143    1
  149   142   144    1
  150   142   145    1
  151   145   146    1
  152   145   147    1
  153   145   148    1
@<TRIPOS>SUBSTRUCTURE
       1 MOL1            1 RESIDUE      1      MOL     
       2 MOL1          148 RESIDUE      1      MOL     
@<SCITEGIC>MOL_PROPERTY
VM2 Rank
SciTegic.value.IntegerValue
5

@<SCITEGIC>MOL_PROPERTY
Conf_Id
SciTegic.value.IntegerValue
20802

@<SCITEGIC>MOL_PROPERTY
Probability
SciTegic.value.DoubleValue
2.24

@<SCITEGIC>MOL_PROPERTY
Sum Probability
SciTegic.value.DoubleValue
14.85

@<SCITEGIC>MOL_PROPERTY
Delta G
SciTegic.value.DoubleValue
0.337

@<SCITEGIC>MOL_PROPERTY
G
SciTegic.value.DoubleValue
497.355

@<SCITEGIC>MOL_PROPERTY
E
SciTegic.value.DoubleValue
305.192

@<SCITEGIC>MOL_PROPERTY
-TS
SciTegic.value.DoubleValue
192.163

@<SCITEGIC>MOL_PROPERTY
U+W
SciTegic.value.DoubleValue
174.632

@<SCITEGIC>MOL_PROPERTY
U
SciTegic.value.DoubleValue
247.979

@<SCITEGIC>MOL_PROPERTY
W
SciTegic.value.DoubleValue
-73.346

@<SCITEGIC>MOL_PROPERTY
W(PB)
SciTegic.value.DoubleValue
-79.483

@<SCITEGIC>MOL_PROPERTY
W(SA)
SciTegic.value.DoubleValue
6.137

@<SCITEGIC>MOL_PROPERTY
Valence
SciTegic.value.DoubleValue
151.127

@<SCITEGIC>MOL_PROPERTY
Coulomb
SciTegic.value.DoubleValue
123.035

@<SCITEGIC>MOL_PROPERTY
VdW
SciTegic.value.DoubleValue
-26.183

@<SCITEGIC>MOL_PROPERTY
VdW6
SciTegic.value.DoubleValue
-182.105

@<SCITEGIC>MOL_PROPERTY
VdW12
SciTegic.value.DoubleValue
155.922

@<SCITEGIC>MOL_PROPERTY
Bond
SciTegic.value.DoubleValue
4.496

@<SCITEGIC>MOL_PROPERTY
Angle
SciTegic.value.DoubleValue
11.459

@<SCITEGIC>MOL_PROPERTY
Pdih
SciTegic.value.DoubleValue
135.172

@<SCITEGIC>MOL_PROPERTY
Idih
SciTegic.value.DoubleValue
0.000

@<SCITEGIC>MOL_PROPERTY
Tether
SciTegic.value.DoubleValue
0.000

@<TRIPOS>MOLECULE
CD_guest-s21_vm2_single.mol2 : vm2 host+ligand conformer 6
         148         153           2
SMALL
USER_CHARGES
 
@<TRIPOS>ATOM
       1    C1      16.225071   15.061559   21.537935 C.3        1 MOL1         0.2972
       2    H1      15.138001   14.922399   21.593224 H          1 MOL1         0.0751
       3    O1      16.577865   16.449925   21.371839 O.3        1 MOL1        -0.3740
       4    C2      16.892970   14.518062   22.825193 C.3        1 MOL1         0.1003
       5    H2      16.668954   13.444734   22.879591 H          1 MOL1         0.0783
       6    O2      16.378140   15.163258   23.997620 O.3        1 MOL1        -0.5519
       7    H3      16.988929   14.888324   24.718107 H          1 MOL1         0.3769
       8    C3      18.428865   14.676532   22.764478 C.3        1 MOL1         0.1053
       9    H4      18.664356   15.746494   22.815322 H          1 MOL1         0.0783
      10    O3      19.017565   13.996524   23.879237 O.3        1 MOL1        -0.5519
      11    H5      19.979823   13.895989   23.675672 H          1 MOL1         0.3769
      12    C4      19.011254   14.111678   21.444301 C.3        1 MOL1         0.1018
      13    H6      19.053131   13.017122   21.522983 H          1 MOL1         0.0783
      14    C5      18.192425   14.522937   20.188336 C.3        1 MOL1         0.1043
      15    H7      18.389797   15.583502   19.983816 H          1 MOL1         0.0783
      16    O4      16.775554   14.326511   20.424841 O.3        1 MOL1        -0.3740
      17    C6      18.572031   13.724474   18.921614 C.3        1 MOL1         0.0138
      18    H8      19.618160   13.935725   18.663586 H          1 MOL1         0.0794
      19    H9      17.952218   14.074600   18.085299 H          1 MOL1         0.0794
      20    O5      18.386807   12.320175   19.122626 O.3        1 MOL1        -0.5486
      21    H10     17.446373   12.202816   19.384229 H          1 MOL1         0.3769
      22    C7      14.900819   20.225774   20.872370 C.3        1 MOL1         0.2972
      23    H11     14.245047   21.068565   20.618470 H          1 MOL1         0.0751
      24    O6      16.208781   20.674311   21.277009 O.3        1 MOL1        -0.3740
      25    C8      14.289407   19.377850   22.018709 C.3        1 MOL1         0.1003
      26    H12     13.314852   19.011871   21.670292 H          1 MOL1         0.0783
      27    O7      14.102342   20.155903   23.208353 O.3        1 MOL1        -0.5519
      28    H13     13.834326   19.501805   23.892598 H          1 MOL1         0.3769
      29    C9      15.173763   18.148042   22.335053 C.3        1 MOL1         0.1053
      30    H14     16.122232   18.507761   22.758856 H          1 MOL1         0.0783
      31    O8      14.501654   17.311104   23.284290 O.3        1 MOL1        -0.5519
      32    H15     15.150970   16.613837   23.552773 H          1 MOL1         0.3769
      33    C10     15.495595   17.343867   21.050090 C.3        1 MOL1         0.1018
      34    H16     14.599174   16.801905   20.720644 H          1 MOL1         0.0783
      35    C11     15.980271   18.257476   19.894067 C.3        1 MOL1         0.1043
      36    H17     16.977738   18.635084   20.146166 H          1 MOL1         0.0783
      37    O9      15.061766   19.365347   19.725304 O.3        1 MOL1        -0.3740
      38    C12     16.076360   17.521292   18.539626 C.3        1 MOL1         0.0138
      39    H18     16.772171   16.678214   18.636174 H          1 MOL1         0.0794
      40    H19     16.495545   18.210088   17.794025 H          1 MOL1         0.0794
      41    O10     14.791945   17.053714   18.117577 O.3        1 MOL1        -0.5486
      42    H20     14.198399   17.837063   18.140864 H          1 MOL1         0.3769
      43    C13     18.476000   24.124328   21.661772 C.3        1 MOL1         0.2972
      44    H21     18.838879   25.153061   21.780494 H          1 MOL1         0.0751
      45    O11     19.550054   23.208519   21.368766 O.3        1 MOL1        -0.3740
      46    C14     17.751455   23.663534   22.951690 C.3        1 MOL1         0.1003
      47    H22     16.893895   24.332802   23.099531 H          1 MOL1         0.0783
      48    O12     18.605600   23.741791   24.100000 O.3        1 MOL1        -0.5519
      49    H23     18.127514   23.235451   24.795429 H          1 MOL1         0.3769
      50    C15     17.205327   22.226851   22.795733 C.3        1 MOL1         0.1053
      51    H24     18.057910   21.538707   22.720648 H          1 MOL1         0.0783
      52    O13     16.404248   21.901347   23.937794 O.3        1 MOL1        -0.5519
      53    H25     15.807780   21.162757   23.663414 H          1 MOL1         0.3769
      54    C16     16.353685   22.087551   21.511085 C.3        1 MOL1         0.1018
      55    H26     15.384300   22.573801   21.684905 H          1 MOL1         0.0783
      56    C17     17.045409   22.710902   20.264683 C.3        1 MOL1         0.1043
      57    H27     17.892574   22.071915   19.982464 H          1 MOL1         0.0783
      58    O14     17.523096   24.044092   20.579501 O.3        1 MOL1        -0.3740
      59    C18     16.117059   22.824494   19.035174 C.3        1 MOL1         0.0138
      60    H28     15.833581   21.816595   18.704628 H          1 MOL1         0.0794
      61    H29     16.676328   23.290999   18.213177 H          1 MOL1         0.0794
      62    O15     14.948660   23.592118   19.339269 O.3        1 MOL1        -0.5486
      63    H30     15.268944   24.467577   19.651380 H          1 MOL1         0.3769
      64    C19     23.597201   22.813046   20.855692 C.3        1 MOL1         0.2972
      65    H31     24.668563   22.890437   20.630068 H          1 MOL1         0.0751
      66    O16     23.210047   21.444205   21.111090 O.3        1 MOL1        -0.3740
      67    C20     23.218373   23.706317   22.066717 C.3        1 MOL1         0.1003
      68    H32     23.410064   24.746286   21.773141 H          1 MOL1         0.0783
      69    O17     24.028021   23.396699   23.211303 O.3        1 MOL1        -0.5519
      70    H33     23.733763   22.508661   23.534290 H          1 MOL1         0.3769
      71    C21     21.704116   23.575312   22.379261 C.3        1 MOL1         0.1053
      72    H34     21.519487   22.556168   22.747084 H          1 MOL1         0.0783
      73    O18     21.316828   24.528931   23.375665 O.3        1 MOL1        -0.5519
      74    H35     20.414522   24.262361   23.680204 H          1 MOL1         0.3769
      75    C22     20.838933   23.796951   21.108090 C.3        1 MOL1         0.1018
      76    H36     20.763987   24.873969   20.907838 H          1 MOL1         0.0783
      77    C23     21.394643   23.095999   19.837694 C.3        1 MOL1         0.1043
      78    H37     21.174248   22.025271   19.905419 H          1 MOL1         0.0783
      79    O19     22.826631   23.287728   19.733122 O.3        1 MOL1        -0.3740
      80    C24     20.749378   23.620837   18.536087 C.3        1 MOL1         0.0138
      81    H38     19.663019   23.467814   18.588273 H          1 MOL1         0.0794
      82    H39     21.125843   23.027944   17.691900 H          1 MOL1         0.0794
      83    O20     21.044004   25.006905   18.338397 O.3        1 MOL1        -0.5486
      84    H40     22.023009   25.085621   18.383861 H          1 MOL1         0.3769
      85    C25     24.792779   17.738581   22.102979 C.3        1 MOL1         0.2972
      86    H41     25.425343   16.901421   22.423532 H          1 MOL1         0.0751
      87    O21     23.587233   17.278110   21.455107 O.3        1 MOL1        -0.3740
      88    C26     24.402658   18.616822   23.320655 C.3        1 MOL1         0.1003
      89    H42     25.330190   19.026911   23.740625 H          1 MOL1         0.0783
      90    O22     23.755241   17.813981   24.321640 O.3        1 MOL1        -0.5519
      91    H43     23.199461   18.411863   24.884858 H          1 MOL1         0.3769
      92    C27     23.524054   19.812306   22.866654 C.3        1 MOL1         0.1053
      93    H44     22.569543   19.419123   22.495281 H          1 MOL1         0.0783
      94    O23     23.302421   20.705988   23.966779 O.3        1 MOL1        -0.5519
      95    H45     22.684217   20.253580   24.599060 H          1 MOL1         0.3769
      96    C28     24.207108   20.590732   21.709249 C.3        1 MOL1         0.1018
      97    H46     25.040969   21.170544   22.126473 H          1 MOL1         0.0783
      98    C29     24.736642   19.654076   20.587759 C.3        1 MOL1         0.1043
      99    H47     23.873923   19.243894   20.046103 H          1 MOL1         0.0783
     100    O24     25.508063   18.575315   21.170216 O.3        1 MOL1        -0.3740
     101    C30     25.636865   20.370394   19.556210 C.3        1 MOL1         0.0138
     102    H48     25.038730   21.115757   19.015445 H          1 MOL1         0.0794
     103    H49     25.982909   19.633531   18.818981 H          1 MOL1         0.0794
     104    O25     26.753919   20.999911   20.190818 O.3        1 MOL1        -0.5486
     105    H50     27.227827   20.290531   20.679385 H          1 MOL1         0.3769
     106    C31     21.391049   13.798097   20.947623 C.3        1 MOL1         0.2972
     107    H51     21.020698   12.794462   20.702436 H          1 MOL1         0.0751
     108    O26     20.319465   14.694475   21.303296 O.3        1 MOL1        -0.3740
     109    C32     22.393252   13.745023   22.127321 C.3        1 MOL1         0.1003
     110    H52     23.243596   13.127027   21.810853 H          1 MOL1         0.0783
     111    O27     21.798606   13.167733   23.297395 O.3        1 MOL1        -0.5519
     112    H53     22.466608   13.305712   24.006489 H          1 MOL1         0.3769
     113    C33     22.925236   15.159866   22.455659 C.3        1 MOL1         0.1053
     114    H54     22.083215   15.756878   22.829945 H          1 MOL1         0.0783
     115    O28     23.929885   15.055414   23.471289 O.3        1 MOL1        -0.5519
     116    H55     23.973619   15.948672   23.895122 H          1 MOL1         0.3769
     117    C34     23.485576   15.865028   21.187925 C.3        1 MOL1         0.1018
     118    H56     24.462261   15.437620   20.925205 H          1 MOL1         0.0783
     119    C35     22.529923   15.731070   19.969268 C.3        1 MOL1         0.1043
     120    H57     21.659516   16.377778   20.136657 H          1 MOL1         0.0783
     121    O29     22.090867   14.358511   19.817342 O.3        1 MOL1        -0.3740
     122    C36     23.185719   16.164306   18.639576 C.3        1 MOL1         0.0138
     123    H58     23.512583   17.209124   18.724161 H          1 MOL1         0.0794
     124    H59     22.430754   16.118852   17.843387 H          1 MOL1         0.0794
     125    O30     24.297421   15.323488   18.317192 O.3        1 MOL1        -0.5486
     126    H60     23.957239   14.401512   18.347250 H          1 MOL1         0.3769
     127    C1      20.574881   18.733997   25.606823 C.2        1 MOL1         0.6145
     128    O1      21.701695   19.190725   25.682100 O.co2      1 MOL1        -0.6735
     129    O2      19.750408   18.803531   26.496475 O.co2      1 MOL1        -0.6735
     130    C2      20.184868   18.040117   24.306902 C.3        1 MOL1        -0.1985
     131    H1      19.356105   17.350718   24.506522 H          1 MOL1         0.0740
     132    H2      21.040892   17.432281   23.997234 H          1 MOL1         0.0740
     133    C3      19.799378   19.036195   23.185633 C.3        1 MOL1        -0.1882
     134    H3      18.796003   19.436504   23.381840 H          1 MOL1         0.0742
     135    H4      20.486053   19.892636   23.209353 H          1 MOL1         0.0742
     136    C4      19.847038   18.379325   21.789958 C.3        1 MOL1        -0.1880
     137    H5      19.057729   17.622879   21.709553 H          1 MOL1         0.0742
     138    H6      20.806137   17.862516   21.661139 H          1 MOL1         0.0742
     139    C5      19.681193   19.421705   20.669089 C.3        1 MOL1        -0.1880
     140    H7      18.728384   19.947053   20.801493 H          1 MOL1         0.0742
     141    H8      20.473199   20.173674   20.761186 H          1 MOL1         0.0742
     142    C6      19.741994   18.777585   19.268830 C.3        1 MOL1        -0.1856
     143    H9      19.051267   17.926158   19.218832 H          1 MOL1         0.0742
     144    H10     20.749833   18.379212   19.092198 H          1 MOL1         0.0742
     145    C7      19.386266   19.790879   18.163283 C.3        1 MOL1        -0.2871
     146    H11     18.373245   20.188507   18.306676 H          1 MOL1         0.0754
     147    H12     19.427446   19.314752   17.175354 H          1 MOL1         0.0754
     148    H13     20.090086   20.631928   18.163403 H          1 MOL1         0.0754
@<TRIPOS>BOND
    1     1     2    1
    2     1     3    1
    3     1     4    1
    4     4     5    1
    5     4     6    1
    6     6     7    1
    7     4     8    1
    8     8     9    1
    9     8    10    1
   10    10    11    1
   11     8    12    1
   12    12    13    1
   13    12    14    1
   14    14    15    1
   15     1    16    1
   16    14    16    1
   17    14    17    1
   18    17    18    1
   19    17    19    1
   20    17    20    1
   21    20    21    1
   22    22    23    1
   23    22    24    1
   24    22    25    1
   25    25    26    1
   26    25    27    1
   27    27    28    1
   28    25    29    1
   29    29    30    1
   30    29    31    1
   31    31    32    1
   32     3    33    1
   33    29    33    1
   34    33    34    1
   35    33    35    1
   36    35    36    1
   37    22    37    1
   38    35    37    1
   39    35    38    1
   40    38    39    1
   41    38    40    1
   42    38    41    1
   43    41    42    1
   44    43    44    1
   45    43    45    1
   46    43    46    1
   47    46    47    1
   48    46    48    1
   49    48    49    1
   50    46    50    1
   51    50    51    1
   52    50    52    1
   53    52    53    1
   54    24    54    1
   55    50    54    1
   56    54    55    1
   57    54    56    1
   58    56    57    1
   59    43    58    1
   60    56    58    1
   61    56    59    1
   62    59    60    1
   63    59    61    1
   64    59    62    1
   65    62    63    1
   66    64    65    1
   67    64    66    1
   68    64    67    1
   69    67    68    1
   70    67    69    1
   71    69    70    1
   72    67    71    1
   73    71    72    1
   74    71    73    1
   75    73    74    1
   76    45    75    1
   77    71    75    1
   78    75    76    1
   79    75    77    1
   80    77    78    1
   81    64    79    1
   82    77    79    1
   83    77    80    1
   84    80    81    1
   85    80    82    1
   86    80    83    1
   87    83    84    1
   88    85    86    1
   89    85    87    1
   90    85    88    1
   91    88    89    1
   92    88    90    1
   93    90    91    1
   94    88    92    1
   95    92    93    1
   96    92    94    1
   97    94    95    1
   98    66    96    1
   99    92    96    1
  100    96    97    1
  101    96    98    1
  102    98    99    1
  103    85   100    1
  104    98   100    1
  105    98   101    1
  106   101   102    1
  107   101   103    1
  108   101   104    1
  109   104   105    1
  110   106   107    1
  111    12   108    1
  112   106   108    1
  113   106   109    1
  114   109   110    1
  115   109   111    1
  116   111   112    1
  117   109   113    1
  118   113   114    1
  119   113   115    1
  120   115   116    1
  121    87   117    1
  122   113   117    1
  123   117   118    1
  124   117   119    1
  125   119   120    1
  126   106   121    1
  127   119   121    1
  128   119   122    1
  129   122   123    1
  130   122   124    1
  131   122   125    1
  132   125   126    1
  133   127   128    1
  134   127   129    2
  135   127   130    1
  136   130   131    1
  137   130   132    1
  138   130   133    1
  139   133   134    1
  140   133   135    1
  141   133   136    1
  142   136   137    1
  143   136   138    1
  144   136   139    1
  145   139   140    1
  146   139   141    1
  147   139   142    1
  148   142   143    1
  149   142   144    1
  150   142   145    1
  151   145   146    1
  152   145   147    1
  153   145   148    1
@<TRIPOS>SUBSTRUCTURE
       1 MOL1            1 RESIDUE      1      MOL     
       2 MOL1          148 RESIDUE      1      MOL     
@<SCITEGIC>MOL_PROPERTY
VM2 Rank
SciTegic.value.IntegerValue
6

@<SCITEGIC>MOL_PROPERTY
Conf_Id
SciTegic.value.IntegerValue
25493

@<SCITEGIC>MOL_PROPERTY
Probability
SciTegic.value.DoubleValue
2.10

@<SCITEGIC>MOL_PROPERTY
Sum Probability
SciTegic.value.DoubleValue
16.95

@<SCITEGIC>MOL_PROPERTY
Delta G
SciTegic.value.DoubleValue
0.376

@<SCITEGIC>MOL_PROPERTY
G
SciTegic.value.DoubleValue
497.394

@<SCITEGIC>MOL_PROPERTY
E
SciTegic.value.DoubleValue
305.188

@<SCITEGIC>MOL_PROPERTY
-TS
SciTegic.value.DoubleValue
192.206

@<SCITEGIC>MOL_PROPERTY
U+W
SciTegic.value.DoubleValue
174.629

@<SCITEGIC>MOL_PROPERTY
U
SciTegic.value.DoubleValue
247.959

@<SCITEGIC>MOL_PROPERTY
W
SciTegic.value.DoubleValue
-73.330

@<SCITEGIC>MOL_PROPERTY
W(PB)
SciTegic.value.DoubleValue
-79.470

@<SCITEGIC>MOL_PROPERTY
W(SA)
SciTegic.value.DoubleValue
6.141

@<SCITEGIC>MOL_PROPERTY
Valence
SciTegic.value.DoubleValue
149.859

@<SCITEGIC>MOL_PROPERTY
Coulomb
SciTegic.value.DoubleValue
122.769

@<SCITEGIC>MOL_PROPERTY
VdW
SciTegic.value.DoubleValue
-24.669

@<SCITEGIC>MOL_PROPERTY
VdW6
SciTegic.value.DoubleValue
-179.904

@<SCITEGIC>MOL_PROPERTY
VdW12
SciTegic.value.DoubleValue
155.235

@<SCITEGIC>MOL_PROPERTY
Bond
SciTegic.value.DoubleValue
4.550

@<SCITEGIC>MOL_PROPERTY
Angle
SciTegic.value.DoubleValue
11.190

@<SCITEGIC>MOL_PROPERTY
Pdih
SciTegic.value.DoubleValue
134.119

@<SCITEGIC>MOL_PROPERTY
Idih
SciTegic.value.DoubleValue
0.000

@<SCITEGIC>MOL_PROPERTY
Tether
SciTegic.value.DoubleValue
0.000

@<TRIPOS>MOLECULE
CD_guest-s21_vm2_single.mol2 : vm2 host+ligand conformer 7
         148         153           2
SMALL
USER_CHARGES
 
@<TRIPOS>ATOM
       1    C1      16.197171   15.033676   21.363623 C.3        1 MOL1         0.2972
       2    H1      15.111746   14.877329   21.327562 H          1 MOL1         0.0751
       3    O1      16.536600   16.434923   21.348974 O.3        1 MOL1        -0.3740
       4    C2      16.780423   14.387150   22.644763 C.3        1 MOL1         0.1003
       5    H2      16.566778   13.311576   22.593281 H          1 MOL1         0.0783
       6    O2      16.177590   14.928521   23.827825 O.3        1 MOL1        -0.5519
       7    H3      16.736015   14.592374   24.564709 H          1 MOL1         0.3769
       8    C3      18.314566   14.561613   22.706126 C.3        1 MOL1         0.1053
       9    H4      18.532594   15.626602   22.856440 H          1 MOL1         0.0783
      10    O3      18.835707   13.798124   23.800756 O.3        1 MOL1        -0.5519
      11    H5      19.819187   13.783983   23.694977 H          1 MOL1         0.3769
      12    C4      18.991352   14.106828   21.389599 C.3        1 MOL1         0.1018
      13    H6      19.020168   13.009262   21.375480 H          1 MOL1         0.0783
      14    C5      18.265734   14.630138   20.118526 C.3        1 MOL1         0.1043
      15    H7      18.467415   15.705200   20.023241 H          1 MOL1         0.0783
      16    O4      16.837456   14.407548   20.231953 O.3        1 MOL1        -0.3740
      17    C6      18.742458   13.945984   18.818228 C.3        1 MOL1         0.0138
      18    H8      19.806337   14.168080   18.663446 H          1 MOL1         0.0794
      19    H9      18.192123   14.376840   17.971143 H          1 MOL1         0.0794
      20    O5      18.535983   12.531388   18.875489 O.3        1 MOL1        -0.5486
      21    H10     17.578761   12.402605   19.059232 H          1 MOL1         0.3769
      22    C7      14.876643   20.229413   20.922783 C.3        1 MOL1         0.2972
      23    H11     14.216998   21.073895   20.687727 H          1 MOL1         0.0751
      24    O6      16.188783   20.677477   21.314780 O.3        1 MOL1        -0.3740
      25    C8      14.271016   19.361859   22.057563 C.3        1 MOL1         0.1003
      26    H12     13.293703   19.005214   21.707024 H          1 MOL1         0.0783
      27    O7      14.089315   20.117765   23.261509 O.3        1 MOL1        -0.5519
      28    H13     13.810014   19.453837   23.931812 H          1 MOL1         0.3769
      29    C9      15.150583   18.122453   22.345530 C.3        1 MOL1         0.1053
      30    H14     16.101199   18.467108   22.776287 H          1 MOL1         0.0783
      31    O8      14.474134   17.267060   23.274794 O.3        1 MOL1        -0.5519
      32    H15     15.093644   16.521580   23.475916 H          1 MOL1         0.3769
      33    C10     15.463373   17.344654   21.043081 C.3        1 MOL1         0.1018
      34    H16     14.559522   16.818842   20.707993 H          1 MOL1         0.0783
      35    C11     15.951064   18.278867   19.904379 C.3        1 MOL1         0.1043
      36    H17     16.950783   18.650867   20.160409 H          1 MOL1         0.0783
      37    O9      15.031398   19.390151   19.759554 O.3        1 MOL1        -0.3740
      38    C12     16.044295   17.568199   18.536194 C.3        1 MOL1         0.0138
      39    H18     16.746667   16.728420   18.613684 H          1 MOL1         0.0794
      40    H19     16.454325   18.273186   17.800727 H          1 MOL1         0.0794
      41    O10     14.760665   17.099491   18.112613 O.3        1 MOL1        -0.5486
      42    H20     14.163359   17.879629   18.144631 H          1 MOL1         0.3769
      43    C13     18.462392   24.070980   21.926116 C.3        1 MOL1         0.2972
      44    H21     18.854205   25.077437   22.120743 H          1 MOL1         0.0751
      45    O11     19.497391   23.165636   21.499975 O.3        1 MOL1        -0.3740
      46    C14     17.802780   23.499203   23.202393 C.3        1 MOL1         0.1003
      47    H22     16.968088   24.161726   23.465845 H          1 MOL1         0.0783
      48    O12     18.731676   23.456263   24.294753 O.3        1 MOL1        -0.5519
      49    H23     18.290836   22.894200   24.971012 H          1 MOL1         0.3769
      50    C15     17.225114   22.090673   22.934484 C.3        1 MOL1         0.1053
      51    H24     18.063798   21.404762   22.757065 H          1 MOL1         0.0783
      52    O13     16.472027   21.669146   24.077058 O.3        1 MOL1        -0.5519
      53    H25     15.838581   20.980459   23.760903 H          1 MOL1         0.3769
      54    C16     16.321098   22.066350   21.675903 C.3        1 MOL1         0.1018
      55    H26     15.352986   22.520486   21.927355 H          1 MOL1         0.0783
      56    C17     16.957457   22.808885   20.466398 C.3        1 MOL1         0.1043
      57    H27     17.779478   22.195036   20.074119 H          1 MOL1         0.0783
      58    O14     17.451907   24.103372   20.896851 O.3        1 MOL1        -0.3740
      59    C18     15.958498   23.061462   19.318128 C.3        1 MOL1         0.0138
      60    H28     15.133634   23.686820   19.684985 H          1 MOL1         0.0794
      61    H29     15.535757   22.105365   18.983634 H          1 MOL1         0.0794
      62    O15     16.625029   23.699465   18.226912 O.3        1 MOL1        -0.5486
      63    H30     17.126756   24.451308   18.615899 H          1 MOL1         0.3769
      64    C19     23.506021   22.829367   20.711851 C.3        1 MOL1         0.2972
      65    H31     24.555420   22.921619   20.403616 H          1 MOL1         0.0751
      66    O16     23.171800   21.463369   21.044344 O.3        1 MOL1        -0.3740
      67    C20     23.188508   23.765685   21.909837 C.3        1 MOL1         0.1003
      68    H32     23.311450   24.797176   21.555769 H          1 MOL1         0.0783
      69    O17     24.100460   23.545288   22.995850 O.3        1 MOL1        -0.5519
      70    H33     23.875956   22.661605   23.379740 H          1 MOL1         0.3769
      71    C21     21.708223   23.588645   22.342874 C.3        1 MOL1         0.1053
      72    H34     21.588042   22.567393   22.729979 H          1 MOL1         0.0783
      73    O18     21.351454   24.531479   23.361278 O.3        1 MOL1        -0.5519
      74    H35     20.506015   24.202981   23.755008 H          1 MOL1         0.3769
      75    C22     20.751707   23.763421   21.131772 C.3        1 MOL1         0.1018
      76    H36     20.644281   24.831165   20.898864 H          1 MOL1         0.0783
      77    C23     21.225194   23.017627   19.856323 C.3        1 MOL1         0.1043
      78    H37     21.032402   21.949458   20.003033 H          1 MOL1         0.0783
      79    O19     22.640597   23.235271   19.632203 O.3        1 MOL1        -0.3740
      80    C24     20.470380   23.458045   18.582562 C.3        1 MOL1         0.0138
      81    H38     19.398135   23.265274   18.715893 H          1 MOL1         0.0794
      82    H39     20.811663   22.842056   17.739932 H          1 MOL1         0.0794
      83    O20     20.692037   24.844378   18.306523 O.3        1 MOL1        -0.5486
      84    H40     21.667323   24.961448   18.269581 H          1 MOL1         0.3769
      85    C25     24.806753   17.800757   22.090938 C.3        1 MOL1         0.2972
      86    H41     25.457945   16.976868   22.409170 H          1 MOL1         0.0751
      87    O21     23.563000   17.311681   21.547434 O.3        1 MOL1        -0.3740
      88    C26     24.500024   18.731462   23.293051 C.3        1 MOL1         0.1003
      89    H42     25.458884   19.126426   23.652703 H          1 MOL1         0.0783
      90    O22     23.879854   17.978707   24.350084 O.3        1 MOL1        -0.5519
      91    H43     23.286500   18.589139   24.860539 H          1 MOL1         0.3769
      92    C27     23.631297   19.939665   22.854985 C.3        1 MOL1         0.1053
      93    H44     22.630062   19.568641   22.602705 H          1 MOL1         0.0783
      94    O23     23.552812   20.891111   23.923731 O.3        1 MOL1        -0.5519
      95    H45     22.968659   20.493910   24.620550 H          1 MOL1         0.3769
      96    C28     24.218584   20.644300   21.602558 C.3        1 MOL1         0.1018
      97    H46     25.084497   21.244518   21.911810 H          1 MOL1         0.0783
      98    C29     24.646114   19.643005   20.495366 C.3        1 MOL1         0.1043
      99    H47     23.738218   19.215061   20.049753 H          1 MOL1         0.0783
     100    O24     25.456169   18.589388   21.071705 O.3        1 MOL1        -0.3740
     101    C30     25.460216   20.295275   19.355900 C.3        1 MOL1         0.0138
     102    H48     24.825109   21.023849   18.834581 H          1 MOL1         0.0794
     103    H49     25.731607   19.519007   18.627925 H          1 MOL1         0.0794
     104    O25     26.635671   20.936448   19.859817 O.3        1 MOL1        -0.5486
     105    H50     27.138057   20.245161   20.345864 H          1 MOL1         0.3769
     106    C31     21.405203   13.795623   21.107334 C.3        1 MOL1         0.2972
     107    H51     21.060165   12.775930   20.894517 H          1 MOL1         0.0751
     108    O26     20.309358   14.684443   21.401536 O.3        1 MOL1        -0.3740
     109    C32     22.373828   13.802147   22.316156 C.3        1 MOL1         0.1003
     110    H52     23.236593   13.177515   22.050484 H          1 MOL1         0.0783
     111    O27     21.748028   13.269044   23.491404 O.3        1 MOL1        -0.5519
     112    H53     22.386184   13.456601   24.216357 H          1 MOL1         0.3769
     113    C33     22.889261   15.232476   22.601205 C.3        1 MOL1         0.1053
     114    H54     22.036980   15.837526   22.938948 H          1 MOL1         0.0783
     115    O28     23.880028   15.175050   23.634104 O.3        1 MOL1        -0.5519
     116    H55     23.952070   16.096319   23.989084 H          1 MOL1         0.3769
     117    C34     23.470615   15.891479   21.319884 C.3        1 MOL1         0.1018
     118    H56     24.453211   15.457042   21.092915 H          1 MOL1         0.0783
     119    C35     22.544046   15.706751   20.086491 C.3        1 MOL1         0.1043
     120    H57     21.663296   16.350625   20.209076 H          1 MOL1         0.0783
     121    O29     22.124859   14.324181   19.974607 O.3        1 MOL1        -0.3740
     122    C36     23.234520   16.091842   18.759380 C.3        1 MOL1         0.0138
     123    H58     23.570935   17.135158   18.818672 H          1 MOL1         0.0794
     124    H59     22.498053   16.027463   17.947374 H          1 MOL1         0.0794
     125    O30     24.345697   15.231873   18.490302 O.3        1 MOL1        -0.5486
     126    H60     23.998144   14.314294   18.553424 H          1 MOL1         0.3769
     127    C1      20.655088   19.487797   25.536370 C.2        1 MOL1         0.6145
     128    O1      21.870231   19.496504   25.605482 O.co2      1 MOL1        -0.6735
     129    O2      19.923900   19.338419   26.495215 O.co2      1 MOL1        -0.6735
     130    C2      20.018585   19.655999   24.160459 C.3        1 MOL1        -0.1985
     131    H1      20.600785   20.396756   23.602214 H          1 MOL1         0.0740
     132    H2      19.016987   20.074254   24.307159 H          1 MOL1         0.0740
     133    C3      19.921977   18.321143   23.378891 C.3        1 MOL1        -0.1882
     134    H3      20.913202   17.852374   23.320792 H          1 MOL1         0.0742
     135    H4      19.287615   17.632507   23.953052 H          1 MOL1         0.0742
     136    C4      19.333620   18.479293   21.957453 C.3        1 MOL1        -0.1880
     137    H5      18.423659   19.091378   21.995272 H          1 MOL1         0.0742
     138    H6      19.030667   17.488328   21.599565 H          1 MOL1         0.0742
     139    C5      20.337353   19.074253   20.945277 C.3        1 MOL1        -0.1880
     140    H7      20.619870   20.089951   21.248036 H          1 MOL1         0.0742
     141    H8      21.254070   18.474186   20.959353 H          1 MOL1         0.0742
     142    C6      19.763459   19.097397   19.512107 C.3        1 MOL1        -0.1856
     143    H9      18.985552   19.870058   19.442318 H          1 MOL1         0.0742
     144    H10     19.280993   18.136134   19.290030 H          1 MOL1         0.0742
     145    C7      20.856788   19.353483   18.454282 C.3        1 MOL1        -0.2871
     146    H11     21.400339   20.284004   18.650717 H          1 MOL1         0.0754
     147    H12     20.415409   19.422084   17.451892 H          1 MOL1         0.0754
     148    H13     21.586349   18.535555   18.445828 H          1 MOL1         0.0754
@<TRIPOS>BOND
    1     1     2    1
    2     1     3    1
    3     1     4    1
    4     4     5    1
    5     4     6    1
    6     6     7    1
    7     4     8    1
    8     8     9    1
    9     8    10    1
   10    10    11    1
   11     8    12    1
   12    12    13    1
   13    12    14    1
   14    14    15    1
   15     1    16    1
   16    14    16    1
   17    14    17    1
   18    17    18    1
   19    17    19    1
   20    17    20    1
   21    20    21    1
   22    22    23    1
   23    22    24    1
   24    22    25    1
   25    25    26    1
   26    25    27    1
   27    27    28    1
   28    25    29    1
   29    29    30    1
   30    29    31    1
   31    31    32    1
   32     3    33    1
   33    29    33    1
   34    33    34    1
   35    33    35    1
   36    35    36    1
   37    22    37    1
   38    35    37    1
   39    35    38    1
   40    38    39    1
   41    38    40    1
   42    38    41    1
   43    41    42    1
   44    43    44    1
   45    43    45    1
   46    43    46    1
   47    46    47    1
   48    46    48    1
   49    48    49    1
   50    46    50    1
   51    50    51    1
   52    50    52    1
   53    52    53    1
   54    24    54    1
   55    50    54    1
   56    54    55    1
   57    54    56    1
   58    56    57    1
   59    43    58    1
   60    56    58    1
   61    56    59    1
   62    59    60    1
   63    59    61    1
   64    59    62    1
   65    62    63    1
   66    64    65    1
   67    64    66    1
   68    64    67    1
   69    67    68    1
   70    67    69    1
   71    69    70    1
   72    67    71    1
   73    71    72    1
   74    71    73    1
   75    73    74    1
   76    45    75    1
   77    71    75    1
   78    75    76    1
   79    75    77    1
   80    77    78    1
   81    64    79    1
   82    77    79    1
   83    77    80    1
   84    80    81    1
   85    80    82    1
   86    80    83    1
   87    83    84    1
   88    85    86    1
   89    85    87    1
   90    85    88    1
   91    88    89    1
   92    88    90    1
   93    90    91    1
   94    88    92    1
   95    92    93    1
   96    92    94    1
   97    94    95    1
   98    66    96    1
   99    92    96    1
  100    96    97    1
  101    96    98    1
  102    98    99    1
  103    85   100    1
  104    98   100    1
  105    98   101    1
  106   101   102    1
  107   101   103    1
  108   101   104    1
  109   104   105    1
  110   106   107    1
  111    12   108    1
  112   106   108    1
  113   106   109    1
  114   109   110    1
  115   109   111    1
  116   111   112    1
  117   109   113    1
  118   113   114    1
  119   113   115    1
  120   115   116    1
  121    87   117    1
  122   113   117    1
  123   117   118    1
  124   117   119    1
  125   119   120    1
  126   106   121    1
  127   119   121    1
  128   119   122    1
  129   122   123    1
  130   122   124    1
  131   122   125    1
  132   125   126    1
  133   127   128    1
  134   127   129    2
  135   127   130    1
  136   130   131    1
  137   130   132    1
  138   130   133    1
  139   133   134    1
  140   133   135    1
  141   133   136    1
  142   136   137    1
  143   136   138    1
  144   136   139    1
  145   139   140    1
  146   139   141    1
  147   139   142    1
  148   142   143    1
  149   142   144    1
  150   142   145    1
  151   145   146    1
  152   145   147    1
  153   145   148    1
@<TRIPOS>SUBSTRUCTURE
       1 MOL1            1 RESIDUE      1      MOL     
       2 MOL1          148 RESIDUE      1      MOL     
@<SCITEGIC>MOL_PROPERTY
VM2 Rank
SciTegic.value.IntegerValue
7

@<SCITEGIC>MOL_PROPERTY
Conf_Id
SciTegic.value.IntegerValue
25711

@<SCITEGIC>MOL_PROPERTY
Probability
SciTegic.value.DoubleValue
2.06

@<SCITEGIC>MOL_PROPERTY
Sum Probability
SciTegic.value.DoubleValue
19.01

@<SCITEGIC>MOL_PROPERTY
Delta G
SciTegic.value.DoubleValue
0.388

@<SCITEGIC>MOL_PROPERTY
G
SciTegic.value.DoubleValue
497.406

@<SCITEGIC>MOL_PROPERTY
E
SciTegic.value.DoubleValue
305.428

@<SCITEGIC>MOL_PROPERTY
-TS
SciTegic.value.DoubleValue
191.978

@<SCITEGIC>MOL_PROPERTY
U+W
SciTegic.value.DoubleValue
174.868

@<SCITEGIC>MOL_PROPERTY
U
SciTegic.value.DoubleValue
248.586

@<SCITEGIC>MOL_PROPERTY
W
SciTegic.value.DoubleValue
-73.717

@<SCITEGIC>MOL_PROPERTY
W(PB)
SciTegic.value.DoubleValue
-79.854

@<SCITEGIC>MOL_PROPERTY
W(SA)
SciTegic.value.DoubleValue
6.137

@<SCITEGIC>MOL_PROPERTY
Valence
SciTegic.value.DoubleValue
151.336

@<SCITEGIC>MOL_PROPERTY
Coulomb
SciTegic.value.DoubleValue
123.301

@<SCITEGIC>MOL_PROPERTY
VdW
SciTegic.value.DoubleValue
-26.052

@<SCITEGIC>MOL_PROPERTY
VdW6
SciTegic.value.DoubleValue
-181.574

@<SCITEGIC>MOL_PROPERTY
VdW12
SciTegic.value.DoubleValue
155.522

@<SCITEGIC>MOL_PROPERTY
Bond
SciTegic.value.DoubleValue
4.487

@<SCITEGIC>MOL_PROPERTY
Angle
SciTegic.value.DoubleValue
11.463

@<SCITEGIC>MOL_PROPERTY
Pdih
SciTegic.value.DoubleValue
135.386

@<SCITEGIC>MOL_PROPERTY
Idih
SciTegic.value.DoubleValue
0.000

@<SCITEGIC>MOL_PROPERTY
Tether
SciTegic.value.DoubleValue
0.000

@<TRIPOS>MOLECULE
CD_guest-s21_vm2_single.mol2 : vm2 host+ligand conformer 8
         148         153           2
SMALL
USER_CHARGES
 
@<TRIPOS>ATOM
       1    C1      16.330087   15.173472   21.633657 C.3        1 MOL1         0.2972
       2    H1      15.252825   15.048452   21.801557 H          1 MOL1         0.0751
       3    O1      16.659329   16.533345   21.282377 O.3        1 MOL1        -0.3740
       4    C2      17.117247   14.771380   22.904319 C.3        1 MOL1         0.1003
       5    H2      16.907232   13.710550   23.093482 H          1 MOL1         0.0783
       6    O2      16.712516   15.534818   24.047849 O.3        1 MOL1        -0.5519
       7    H3      17.418827   15.369232   24.713228 H          1 MOL1         0.3769
       8    C3      18.639376   14.915520   22.683336 C.3        1 MOL1         0.1053
       9    H4      18.875488   15.980504   22.563756 H          1 MOL1         0.0783
      10    O3      19.313833   14.388205   23.830308 O.3        1 MOL1        -0.5519
      11    H5      20.221899   14.133543   23.538604 H          1 MOL1         0.3769
      12    C4      19.100035   14.175901   21.400547 C.3        1 MOL1         0.1018
      13    H6      19.137538   13.097780   21.606840 H          1 MOL1         0.0783
      14    C5      18.170410   14.455929   20.185211 C.3        1 MOL1         0.1043
      15    H7      18.351937   15.483881   19.845084 H          1 MOL1         0.0783
      16    O4      16.778441   14.310810   20.565877 O.3        1 MOL1        -0.3740
      17    C6      18.434773   13.516548   18.988006 C.3        1 MOL1         0.0138
      18    H8      19.455907   13.684644   18.620213 H          1 MOL1         0.0794
      19    H9      17.746094   13.779880   18.174001 H          1 MOL1         0.0794
      20    O5      18.263716   12.145773   19.360213 O.3        1 MOL1        -0.5486
      21    H10     17.348537   12.069136   19.711227 H          1 MOL1         0.3769
      22    C7      14.843506   20.274877   20.934510 C.3        1 MOL1         0.2972
      23    H11     14.155029   21.099229   20.708559 H          1 MOL1         0.0751
      24    O6      16.129478   20.757575   21.364925 O.3        1 MOL1        -0.3740
      25    C8      14.266653   19.369971   22.053203 C.3        1 MOL1         0.1003
      26    H12     13.302688   18.983736   21.697316 H          1 MOL1         0.0783
      27    O7      14.061754   20.106890   23.266982 O.3        1 MOL1        -0.5519
      28    H13     13.827798   19.423235   23.934442 H          1 MOL1         0.3769
      29    C9      15.192245   18.160006   22.329174 C.3        1 MOL1         0.1053
      30    H14     16.126985   18.537555   22.767862 H          1 MOL1         0.0783
      31    O8      14.541241   17.279380   23.252599 O.3        1 MOL1        -0.5519
      32    H15     15.243570   16.671147   23.593432 H          1 MOL1         0.3769
      33    C10     15.545329   17.409132   21.016773 C.3        1 MOL1         0.1018
      34    H16     14.669639   16.850545   20.660338 H          1 MOL1         0.0783
      35    C11     16.002642   18.382838   19.900193 C.3        1 MOL1         0.1043
      36    H17     16.982626   18.789516   20.177327 H          1 MOL1         0.0783
      37    O9      15.042283   19.458797   19.761288 O.3        1 MOL1        -0.3740
      38    C12     16.139995   17.697839   18.522698 C.3        1 MOL1         0.0138
      39    H18     16.856319   16.870278   18.603029 H          1 MOL1         0.0794
      40    H19     16.552505   18.422569   17.808159 H          1 MOL1         0.0794
      41    O10     14.875618   17.210741   18.063668 O.3        1 MOL1        -0.5486
      42    H20     14.258088   17.974037   18.114228 H          1 MOL1         0.3769
      43    C13     18.423183   24.172563   21.657914 C.3        1 MOL1         0.2972
      44    H21     18.817327   25.193598   21.736334 H          1 MOL1         0.0751
      45    O11     19.475134   23.205374   21.468349 O.3        1 MOL1        -0.3740
      46    C14     17.635489   23.810802   22.941180 C.3        1 MOL1         0.1003
      47    H22     16.798810   24.516817   23.022405 H          1 MOL1         0.0783
      48    O12     18.459665   23.921104   24.109753 O.3        1 MOL1        -0.5519
      49    H23     17.932422   23.497780   24.824057 H          1 MOL1         0.3769
      50    C15     17.046349   22.386138   22.842059 C.3        1 MOL1         0.1053
      51    H24     17.880294   21.673987   22.857425 H          1 MOL1         0.0783
      52    O13     16.177588   22.147615   23.956006 O.3        1 MOL1        -0.5519
      53    H25     15.635987   21.353201   23.725762 H          1 MOL1         0.3769
      54    C16     16.260119   22.181716   21.524179 C.3        1 MOL1         0.1018
      55    H26     15.284372   22.675813   21.623203 H          1 MOL1         0.0783
      56    C17     17.010649   22.728523   20.276727 C.3        1 MOL1         0.1043
      57    H27     17.848840   22.053864   20.056082 H          1 MOL1         0.0783
      58    O14     17.512680   24.062442   20.543599 O.3        1 MOL1        -0.3740
      59    C18     16.127926   22.808538   19.011349 C.3        1 MOL1         0.0138
      60    H28     15.822800   21.795263   18.719759 H          1 MOL1         0.0794
      61    H29     16.728978   23.216772   18.187838 H          1 MOL1         0.0794
      62    O15     14.975819   23.626244   19.236727 O.3        1 MOL1        -0.5486
      63    H30     15.314488   24.503990   19.522006 H          1 MOL1         0.3769
      64    C19     23.525619   22.743221   20.842603 C.3        1 MOL1         0.2972
      65    H31     24.588034   22.836079   20.583362 H          1 MOL1         0.0751
      66    O16     23.170043   21.370464   21.113722 O.3        1 MOL1        -0.3740
      67    C20     23.168188   23.644193   22.057737 C.3        1 MOL1         0.1003
      68    H32     23.350920   24.682476   21.752815 H          1 MOL1         0.0783
      69    O17     24.001004   23.346841   23.188728 O.3        1 MOL1        -0.5519
      70    H33     23.711440   22.463595   23.528252 H          1 MOL1         0.3769
      71    C21     21.661333   23.513795   22.405052 C.3        1 MOL1         0.1053
      72    H34     21.484938   22.493914   22.772389 H          1 MOL1         0.0783
      73    O18     21.287224   24.464256   23.410224 O.3        1 MOL1        -0.5519
      74    H35     20.361062   24.242437   23.676887 H          1 MOL1         0.3769
      75    C22     20.775011   23.736843   21.151944 C.3        1 MOL1         0.1018
      76    H36     20.737128   24.810339   20.924026 H          1 MOL1         0.0783
      77    C23     21.284197   22.979225   19.897007 C.3        1 MOL1         0.1043
      78    H37     21.072382   21.911371   20.028433 H          1 MOL1         0.0783
      79    O19     22.710608   23.183186   19.736837 O.3        1 MOL1        -0.3740
      80    C24     20.594070   23.438874   18.593819 C.3        1 MOL1         0.0138
      81    H38     19.511651   23.280903   18.685066 H          1 MOL1         0.0794
      82    H39     20.949936   22.810609   17.766403 H          1 MOL1         0.0794
      83    O20     20.869942   24.816678   18.324678 O.3        1 MOL1        -0.5486
      84    H40     21.849083   24.904782   18.337767 H          1 MOL1         0.3769
      85    C25     24.759129   17.685299   22.137749 C.3        1 MOL1         0.2972
      86    H41     25.390577   16.857046   22.482952 H          1 MOL1         0.0751
      87    O21     23.597112   17.204021   21.428765 O.3        1 MOL1        -0.3740
      88    C26     24.301496   18.545693   23.345861 C.3        1 MOL1         0.1003
      89    H42     25.207011   18.930347   23.832584 H          1 MOL1         0.0783
      90    O22     23.577137   17.731459   24.285329 O.3        1 MOL1        -0.5519
      91    H43     22.996577   18.321156   24.833401 H          1 MOL1         0.3769
      92    C27     23.468890   19.767344   22.877093 C.3        1 MOL1         0.1053
      93    H44     22.508101   19.403100   22.494013 H          1 MOL1         0.0783
      94    O23     23.262505   20.665028   23.976279 O.3        1 MOL1        -0.5519
      95    H45     22.649682   20.213362   24.612441 H          1 MOL1         0.3769
      96    C28     24.173738   20.540102   21.731372 C.3        1 MOL1         0.1018
      97    H46     24.990170   21.135202   22.160883 H          1 MOL1         0.0783
      98    C29     24.738951   19.603926   20.628566 C.3        1 MOL1         0.1043
      99    H47     23.894638   19.185022   20.064751 H          1 MOL1         0.0783
     100    O24     25.502012   18.535819   21.239880 O.3        1 MOL1        -0.3740
     101    C30     25.661498   20.322442   19.618562 C.3        1 MOL1         0.0138
     102    H48     25.072215   21.059614   19.057331 H          1 MOL1         0.0794
     103    H49     26.033866   19.584578   18.895303 H          1 MOL1         0.0794
     104    O25     26.755454   20.964940   20.279663 O.3        1 MOL1        -0.5486
     105    H50     27.218598   20.263361   20.789385 H          1 MOL1         0.3769
     106    C31     21.446199   13.752866   20.782590 C.3        1 MOL1         0.2972
     107    H51     21.043816   12.765879   20.520437 H          1 MOL1         0.0751
     108    O26     20.395217   14.705193   21.056459 O.3        1 MOL1        -0.3740
     109    C32     22.394854   13.669776   22.004644 C.3        1 MOL1         0.1003
     110    H52     23.261884   13.066328   21.705357 H          1 MOL1         0.0783
     111    O27     21.768186   13.051756   23.133859 O.3        1 MOL1        -0.5519
     112    H53     22.419856   13.152964   23.864551 H          1 MOL1         0.3769
     113    C33     22.905991   15.080057   22.381050 C.3        1 MOL1         0.1053
     114    H54     22.045709   15.680602   22.709279 H          1 MOL1         0.0783
     115    O28     23.847751   14.967831   23.454380 O.3        1 MOL1        -0.5519
     116    H55     23.856682   15.856271   23.890710 H          1 MOL1         0.3769
     117    C34     23.549311   15.788586   21.155106 C.3        1 MOL1         0.1018
     118    H56     24.554470   15.382010   20.981781 H          1 MOL1         0.0783
     119    C35     22.712713   15.629028   19.851937 C.3        1 MOL1         0.1043
     120    H57     21.849173   16.300136   19.909732 H          1 MOL1         0.0783
     121    O29     22.242088   14.266509   19.694737 O.3        1 MOL1        -0.3740
     122    C36     23.508334   16.002755   18.582010 C.3        1 MOL1         0.0138
     123    H58     23.853388   17.041755   18.668654 H          1 MOL1         0.0794
     124    H59     22.835428   15.949447   17.715841 H          1 MOL1         0.0794
     125    O30     24.623088   15.125192   18.397200 O.3        1 MOL1        -0.5486
     126    H60     24.255732   14.213295   18.410330 H          1 MOL1         0.3769
     127    C1      20.356112   19.291708   25.537834 C.2        1 MOL1         0.6145
     128    O1      19.579697   18.949184   26.407259 O.co2      1 MOL1        -0.6735
     129    O2      21.567690   19.206274   25.631580 O.co2      1 MOL1        -0.6735
     130    C2      19.790693   19.865508   24.243061 C.3        1 MOL1        -0.1985
     131    H1      20.402523   20.734083   23.975817 H          1 MOL1         0.0740
     132    H2      18.776207   20.232982   24.435780 H          1 MOL1         0.0740
     133    C3      19.777482   18.834264   23.087355 C.3        1 MOL1        -0.1882
     134    H3      20.703285   18.244150   23.119486 H          1 MOL1         0.0742
     135    H4      18.952586   18.127237   23.244028 H          1 MOL1         0.0742
     136    C4      19.644401   19.505428   21.702852 C.3        1 MOL1        -0.1880
     137    H5      20.380861   20.314595   21.614160 H          1 MOL1         0.0742
     138    H6      18.652607   19.960454   21.605686 H          1 MOL1         0.0742
     139    C5      19.867775   18.491608   20.564037 C.3        1 MOL1        -0.1880
     140    H7      20.862202   18.046585   20.683317 H          1 MOL1         0.0742
     141    H8      19.138125   17.676233   20.650079 H          1 MOL1         0.0742
     142    C6      19.766351   19.145068   19.170176 C.3        1 MOL1        -0.1856
     143    H9      20.540408   19.916361   19.068797 H          1 MOL1         0.0742
     144    H10     18.797752   19.650038   19.061547 H          1 MOL1         0.0742
     145    C7      19.937785   18.106666   18.043988 C.3        1 MOL1        -0.2871
     146    H11     20.934418   17.651005   18.083085 H          1 MOL1         0.0754
     147    H12     19.821306   18.580163   17.060796 H          1 MOL1         0.0754
     148    H13     19.192995   17.305804   18.127108 H          1 MOL1         0.0754
@<TRIPOS>BOND
    1     1     2    1
    2     1     3    1
    3     1     4    1
    4     4     5    1
    5     4     6    1
    6     6     7    1
    7     4     8    1
    8     8     9    1
    9     8    10    1
   10    10    11    1
   11     8    12    1
   12    12    13    1
   13    12    14    1
   14    14    15    1
   15     1    16    1
   16    14    16    1
   17    14    17    1
   18    17    18    1
   19    17    19    1
   20    17    20    1
   21    20    21    1
   22    22    23    1
   23    22    24    1
   24    22    25    1
   25    25    26    1
   26    25    27    1
   27    27    28    1
   28    25    29    1
   29    29    30    1
   30    29    31    1
   31    31    32    1
   32     3    33    1
   33    29    33    1
   34    33    34    1
   35    33    35    1
   36    35    36    1
   37    22    37    1
   38    35    37    1
   39    35    38    1
   40    38    39    1
   41    38    40    1
   42    38    41    1
   43    41    42    1
   44    43    44    1
   45    43    45    1
   46    43    46    1
   47    46    47    1
   48    46    48    1
   49    48    49    1
   50    46    50    1
   51    50    51    1
   52    50    52    1
   53    52    53    1
   54    24    54    1
   55    50    54    1
   56    54    55    1
   57    54    56    1
   58    56    57    1
   59    43    58    1
   60    56    58    1
   61    56    59    1
   62    59    60    1
   63    59    61    1
   64    59    62    1
   65    62    63    1
   66    64    65    1
   67    64    66    1
   68    64    67    1
   69    67    68    1
   70    67    69    1
   71    69    70    1
   72    67    71    1
   73    71    72    1
   74    71    73    1
   75    73    74    1
   76    45    75    1
   77    71    75    1
   78    75    76    1
   79    75    77    1
   80    77    78    1
   81    64    79    1
   82    77    79    1
   83    77    80    1
   84    80    81    1
   85    80    82    1
   86    80    83    1
   87    83    84    1
   88    85    86    1
   89    85    87    1
   90    85    88    1
   91    88    89    1
   92    88    90    1
   93    90    91    1
   94    88    92    1
   95    92    93    1
   96    92    94    1
   97    94    95    1
   98    66    96    1
   99    92    96    1
  100    96    97    1
  101    96    98    1
  102    98    99    1
  103    85   100    1
  104    98   100    1
  105    98   101    1
  106   101   102    1
  107   101   103    1
  108   101   104    1
  109   104   105    1
  110   106   107    1
  111    12   108    1
  112   106   108    1
  113   106   109    1
  114   109   110    1
  115   109   111    1
  116   111   112    1
  117   109   113    1
  118   113   114    1
  119   113   115    1
  120   115   116    1
  121    87   117    1
  122   113   117    1
  123   117   118    1
  124   117   119    1
  125   119   120    1
  126   106   121    1
  127   119   121    1
  128   119   122    1
  129   122   123    1
  130   122   124    1
  131   122   125    1
  132   125   126    1
  133   127   128    1
  134   127   129    2
  135   127   130    1
  136   130   131    1
  137   130   132    1
  138   130   133    1
  139   133   134    1
  140   133   135    1
  141   133   136    1
  142   136   137    1
  143   136   138    1
  144   136   139    1
  145   139   140    1
  146   139   141    1
  147   139   142    1
  148   142   143    1
  149   142   144    1
  150   142   145    1
  151   145   146    1
  152   145   147    1
  153   145   148    1
@<TRIPOS>SUBSTRUCTURE
       1 MOL1            1 RESIDUE      1      MOL     
       2 MOL1          148 RESIDUE      1      MOL     
@<SCITEGIC>MOL_PROPERTY
VM2 Rank
SciTegic.value.IntegerValue
8

@<SCITEGIC>MOL_PROPERTY
Conf_Id
SciTegic.value.IntegerValue
23462

@<SCITEGIC>MOL_PROPERTY
Probability
SciTegic.value.DoubleValue
1.85

@<SCITEGIC>MOL_PROPERTY
Sum Probability
SciTegic.value.DoubleValue
20.86

@<SCITEGIC>MOL_PROPERTY
Delta G
SciTegic.value.DoubleValue
0.451

@<SCITEGIC>MOL_PROPERTY
G
SciTegic.value.DoubleValue
497.469

@<SCITEGIC>MOL_PROPERTY
E
SciTegic.value.DoubleValue
305.242

@<SCITEGIC>MOL_PROPERTY
-TS
SciTegic.value.DoubleValue
192.228

@<SCITEGIC>MOL_PROPERTY
U+W
SciTegic.value.DoubleValue
174.682

@<SCITEGIC>MOL_PROPERTY
U
SciTegic.value.DoubleValue
247.541

@<SCITEGIC>MOL_PROPERTY
W
SciTegic.value.DoubleValue
-72.859

@<SCITEGIC>MOL_PROPERTY
W(PB)
SciTegic.value.DoubleValue
-79.033

@<SCITEGIC>MOL_PROPERTY
W(SA)
SciTegic.value.DoubleValue
6.174

@<SCITEGIC>MOL_PROPERTY
Valence
SciTegic.value.DoubleValue
149.830

@<SCITEGIC>MOL_PROPERTY
Coulomb
SciTegic.value.DoubleValue
122.255

@<SCITEGIC>MOL_PROPERTY
VdW
SciTegic.value.DoubleValue
-24.543

@<SCITEGIC>MOL_PROPERTY
VdW6
SciTegic.value.DoubleValue
-180.454

@<SCITEGIC>MOL_PROPERTY
VdW12
SciTegic.value.DoubleValue
155.910

@<SCITEGIC>MOL_PROPERTY
Bond
SciTegic.value.DoubleValue
4.578

@<SCITEGIC>MOL_PROPERTY
Angle
SciTegic.value.DoubleValue
11.626

@<SCITEGIC>MOL_PROPERTY
Pdih
SciTegic.value.DoubleValue
133.625

@<SCITEGIC>MOL_PROPERTY
Idih
SciTegic.value.DoubleValue
0.000

@<SCITEGIC>MOL_PROPERTY
Tether
SciTegic.value.DoubleValue
0.000

