@<TRIPOS>MOLECULE
CD_guest-s10_vm2_single.mol2 : vm2 host+ligand conformer 1
         146         151           2
SMALL
USER_CHARGES
 
@<TRIPOS>ATOM
       1    C1      16.165503   15.093537   20.988768 C.3        1 MOL1         0.2972
       2    H1      15.083578   14.962157   20.858057 H          1 MOL1         0.0751
       3    O1      16.501272   16.453089   21.334133 O.3        1 MOL1        -0.3740
       4    C2      16.709788   14.151692   22.093212 C.3        1 MOL1         0.1003
       5    H2      16.520087   13.120266   21.768464 H          1 MOL1         0.0783
       6    O2      16.060897   14.375783   23.350985 O.3        1 MOL1        -0.5519
       7    H3      16.557643   13.815371   23.989322 H          1 MOL1         0.3769
       8    C3      18.237375   14.328944   22.253939 C.3        1 MOL1         0.1053
       9    H4      18.426575   15.338453   22.642187 H          1 MOL1         0.0783
      10    O3      18.738149   13.353646   23.175465 O.3        1 MOL1        -0.5519
      11    H5      19.716076   13.486181   23.223597 H          1 MOL1         0.3769
      12    C4      18.965794   14.188681   20.894424 C.3        1 MOL1         0.1018
      13    H6      18.993252   13.125567   20.621439 H          1 MOL1         0.0783
      14    C5      18.283094   14.998280   19.757132 C.3        1 MOL1         0.1043
      15    H7      18.479154   16.065432   19.921706 H          1 MOL1         0.0783
      16    O4      16.853448   14.761329   19.764132 O.3        1 MOL1        -0.3740
      17    C6      18.811011   14.630880   18.352521 C.3        1 MOL1         0.0138
      18    H8      19.883107   14.861038   18.299074 H          1 MOL1         0.0794
      19    H9      18.303418   15.259638   17.608899 H          1 MOL1         0.0794
      20    O5      18.588998   13.246861   18.065804 O.3        1 MOL1        -0.5486
      21    H10     17.623912   13.096032   18.177592 H          1 MOL1         0.3769
      22    C7      14.916851   20.193736   22.004852 C.3        1 MOL1         0.2972
      23    H11     14.287855   21.068128   22.215446 H          1 MOL1         0.0751
      24    O6      16.240457   20.581170   21.578278 O.3        1 MOL1        -0.3740
      25    C8      15.027029   19.310934   23.270541 C.3        1 MOL1         0.1003
      26    H12     14.011987   18.979174   23.525414 H          1 MOL1         0.0783
      27    O7      15.572041   20.044100   24.376134 O.3        1 MOL1        -0.5519
      28    H13     15.696046   19.368951   25.079223 H          1 MOL1         0.3769
      29    C9      15.880142   18.053935   22.994754 C.3        1 MOL1         0.1053
      30    H14     16.914287   18.374114   22.825963 H          1 MOL1         0.0783
      31    O8      15.814800   17.185569   24.131166 O.3        1 MOL1        -0.5519
      32    H15     16.050017   16.279326   23.814773 H          1 MOL1         0.3769
      33    C10     15.405322   17.300846   21.728104 C.3        1 MOL1         0.1018
      34    H16     14.505751   16.723565   21.981071 H          1 MOL1         0.0783
      35    C11     15.114081   18.248931   20.530233 C.3        1 MOL1         0.1043
      36    H17     16.075356   18.596844   20.130415 H          1 MOL1         0.0783
      37    O9      14.327871   19.387876   20.962628 O.3        1 MOL1        -0.3740
      38    C12     14.350889   17.560128   19.377049 C.3        1 MOL1         0.0138
      39    H18     14.976745   16.760175   18.959670 H          1 MOL1         0.0794
      40    H19     14.182302   18.293413   18.577053 H          1 MOL1         0.0794
      41    O10     13.104265   17.024845   19.830722 O.3        1 MOL1        -0.5486
      42    H20     12.604310   17.779132   20.215101 H          1 MOL1         0.3769
      43    C13     18.427664   24.064897   20.873105 C.3        1 MOL1         0.2972
      44    H21     18.734560   25.077099   20.581120 H          1 MOL1         0.0751
      45    O11     19.555551   23.241337   21.227346 O.3        1 MOL1        -0.3740
      46    C14     17.473725   24.123226   22.093474 C.3        1 MOL1         0.1003
      47    H22     16.603437   24.726062   21.803112 H          1 MOL1         0.0783
      48    O12     18.114756   24.729658   23.224950 O.3        1 MOL1        -0.5519
      49    H23     17.487487   24.589707   23.969650 H          1 MOL1         0.3769
      50    C15     16.972346   22.709359   22.472037 C.3        1 MOL1         0.1053
      51    H24     17.831804   22.136239   22.843551 H          1 MOL1         0.0783
      52    O13     15.980257   22.816549   23.499905 O.3        1 MOL1        -0.5519
      53    H25     15.838923   21.901871   23.850222 H          1 MOL1         0.3769
      54    C16     16.396676   21.971325   21.234003 C.3        1 MOL1         0.1018
      55    H26     15.439369   22.426250   20.945604 H          1 MOL1         0.0783
      56    C17     17.354607   22.039123   20.017286 C.3        1 MOL1         0.1043
      57    H27     18.243192   21.427611   20.223094 H          1 MOL1         0.0783
      58    O14     17.724964   23.420756   19.789552 O.3        1 MOL1        -0.3740
      59    C18     16.689475   21.520682   18.725371 C.3        1 MOL1         0.0138
      60    H28     15.833262   22.161420   18.475226 H          1 MOL1         0.0794
      61    H29     16.307042   20.506457   18.895081 H          1 MOL1         0.0794
      62    O15     17.637945   21.510257   17.656859 O.3        1 MOL1        -0.5486
      63    H30     17.979553   22.428758   17.588322 H          1 MOL1         0.3769
      64    C19     23.641430   22.873425   21.053509 C.3        1 MOL1         0.2972
      65    H31     24.727581   22.967892   20.926662 H          1 MOL1         0.0751
      66    O16     23.251975   21.504301   21.291537 O.3        1 MOL1        -0.3740
      67    C20     23.129436   23.776491   22.206912 C.3        1 MOL1         0.1003
      68    H32     23.328489   24.816793   21.917761 H          1 MOL1         0.0783
      69    O17     23.793871   23.504202   23.446552 O.3        1 MOL1        -0.5519
      70    H33     23.333925   24.071553   24.106419 H          1 MOL1         0.3769
      71    C21     21.601341   23.617091   22.378329 C.3        1 MOL1         0.1053
      72    H34     21.398487   22.595129   22.726021 H          1 MOL1         0.0783
      73    O18     21.120636   24.561726   23.342466 O.3        1 MOL1        -0.5519
      74    H35     20.132874   24.504631   23.328560 H          1 MOL1         0.3769
      75    C22     20.856643   23.825888   21.037316 C.3        1 MOL1         0.1018
      76    H36     20.803488   24.903903   20.835498 H          1 MOL1         0.0783
      77    C23     21.527449   23.100635   19.835643 C.3        1 MOL1         0.1043
      78    H37     21.309691   22.027017   19.913353 H          1 MOL1         0.0783
      79    O19     22.962912   23.310325   19.857274 O.3        1 MOL1        -0.3740
      80    C24     21.006633   23.585138   18.464523 C.3        1 MOL1         0.0138
      81    H38     19.935074   23.362939   18.388798 H          1 MOL1         0.0794
      82    H39     21.514369   23.017359   17.673413 H          1 MOL1         0.0794
      83    O20     21.233015   24.987248   18.292195 O.3        1 MOL1        -0.5486
      84    H40     22.199494   25.125139   18.408356 H          1 MOL1         0.3769
      85    C25     24.629378   17.770037   22.347447 C.3        1 MOL1         0.2972
      86    H41     25.197397   16.905914   22.713636 H          1 MOL1         0.0751
      87    O21     23.504689   17.362012   21.540359 O.3        1 MOL1        -0.3740
      88    C26     24.100086   18.606366   23.540943 C.3        1 MOL1         0.1003
      89    H42     24.971099   18.913183   24.133977 H          1 MOL1         0.0783
      90    O22     23.228701   17.802887   24.359178 O.3        1 MOL1        -0.5519
      91    H43     23.509011   16.864425   24.234070 H          1 MOL1         0.3769
      92    C27     23.379189   19.889333   23.045407 C.3        1 MOL1         0.1053
      93    H44     22.437797   19.582558   22.574416 H          1 MOL1         0.0783
      94    O23     23.108316   20.767734   24.146911 O.3        1 MOL1        -0.5519
      95    H45     23.265186   21.686642   23.821086 H          1 MOL1         0.3769
      96    C28     24.197213   20.660538   21.977389 C.3        1 MOL1         0.1018
      97    H46     24.980892   21.242694   22.480819 H          1 MOL1         0.0783
      98    C29     24.831611   19.731546   20.906204 C.3        1 MOL1         0.1043
      99    H47     24.032143   19.363998   20.249518 H          1 MOL1         0.0783
     100    O24     25.484759   18.613150   21.549222 O.3        1 MOL1        -0.3740
     101    C30     25.876400   20.439381   20.014640 C.3        1 MOL1         0.0138
     102    H48     25.374314   21.215418   19.421940 H          1 MOL1         0.0794
     103    H49     26.290729   19.707414   19.308328 H          1 MOL1         0.0794
     104    O25     26.922544   21.018424   20.799912 O.3        1 MOL1        -0.5486
     105    H50     27.313612   20.283298   21.322734 H          1 MOL1         0.3769
     106    C31     21.392849   13.880197   20.742788 C.3        1 MOL1         0.2972
     107    H51     21.059405   12.882379   20.431305 H          1 MOL1         0.0751
     108    O26     20.283874   14.738239   21.082716 O.3        1 MOL1        -0.3740
     109    C32     22.328180   13.780243   21.974714 C.3        1 MOL1         0.1003
     110    H52     23.211794   13.203308   21.670964 H          1 MOL1         0.0783
     111    O27     21.683531   13.116316   23.075896 O.3        1 MOL1        -0.5519
     112    H53     21.647406   12.159398   22.861168 H          1 MOL1         0.3769
     113    C33     22.806348   15.187525   22.404626 C.3        1 MOL1         0.1053
     114    H54     21.930469   15.751326   22.753556 H          1 MOL1         0.0783
     115    O28     23.742373   15.038403   23.478332 O.3        1 MOL1        -0.5519
     116    H55     23.346090   14.346603   24.055999 H          1 MOL1         0.3769
     117    C34     23.434716   15.959883   21.208266 C.3        1 MOL1         0.1018
     118    H56     24.431729   15.554782   20.989981 H          1 MOL1         0.0783
     119    C35     22.561578   15.871119   19.925806 C.3        1 MOL1         0.1043
     120    H57     21.676440   16.503685   20.066408 H          1 MOL1         0.0783
     121    O29     22.146937   14.504124   19.684023 O.3        1 MOL1        -0.3740
     122    C36     23.298298   16.366327   18.661408 C.3        1 MOL1         0.0138
     123    H58     23.605535   17.409925   18.810031 H          1 MOL1         0.0794
     124    H59     22.599085   16.345663   17.814891 H          1 MOL1         0.0794
     125    O30     24.440050   15.551787   18.379695 O.3        1 MOL1        -0.5486
     126    H60     24.110453   14.626186   18.341433 H          1 MOL1         0.3769
     127    N1      21.120865   19.297673   25.590540 N.4        1 MOL1        -0.5937
     128    H1      21.547697   18.457620   25.173688 H          1 MOL1         0.3684
     129    H2      21.254802   19.243212   26.601828 H          1 MOL1         0.3684
     130    H3      21.710923   20.068819   25.239987 H          1 MOL1         0.3684
     131    C1      19.677831   19.471536   25.207534 C.3        1 MOL1         0.1270
     132    H4      19.353306   20.399726   25.687965 H          1 MOL1         0.0960
     133    C2      18.816913   18.330545   25.775665 C.3        1 MOL1        -0.2382
     134    H5      19.140517   17.351624   25.402378 H          1 MOL1         0.1009
     135    H6      17.763511   18.469412   25.508831 H          1 MOL1         0.1009
     136    H7      18.881400   18.309291   26.870068 H          1 MOL1         0.1009
     137    C3      19.480351   19.657277   23.683964 C.3        1 MOL1        -0.1392
     138    H8      18.442130   19.963240   23.503770 H          1 MOL1         0.0998
     139    H9      20.102784   20.498783   23.351979 H          1 MOL1         0.0998
     140    C4      19.798619   18.410262   22.818822 C.3        1 MOL1        -0.1302
     141    H10     19.123092   17.584962   23.077694 H          1 MOL1         0.0998
     142    H11     20.817043   18.053825   23.019496 H          1 MOL1         0.0998
     143    C5      19.652932   18.720459   21.314231 C.3        1 MOL1        -0.2317
     144    H12     18.629540   19.036906   21.074137 H          1 MOL1         0.1009
     145    H13     19.878706   17.830963   20.714782 H          1 MOL1         0.1009
     146    H14     20.340806   19.519302   21.007032 H          1 MOL1         0.1009
@<TRIPOS>BOND
    1     1     2    1
    2     1     3    1
    3     1     4    1
    4     4     5    1
    5     4     6    1
    6     6     7    1
    7     4     8    1
    8     8     9    1
    9     8    10    1
   10    10    11    1
   11     8    12    1
   12    12    13    1
   13    12    14    1
   14    14    15    1
   15     1    16    1
   16    14    16    1
   17    14    17    1
   18    17    18    1
   19    17    19    1
   20    17    20    1
   21    20    21    1
   22    22    23    1
   23    22    24    1
   24    22    25    1
   25    25    26    1
   26    25    27    1
   27    27    28    1
   28    25    29    1
   29    29    30    1
   30    29    31    1
   31    31    32    1
   32     3    33    1
   33    29    33    1
   34    33    34    1
   35    33    35    1
   36    35    36    1
   37    22    37    1
   38    35    37    1
   39    35    38    1
   40    38    39    1
   41    38    40    1
   42    38    41    1
   43    41    42    1
   44    43    44    1
   45    43    45    1
   46    43    46    1
   47    46    47    1
   48    46    48    1
   49    48    49    1
   50    46    50    1
   51    50    51    1
   52    50    52    1
   53    52    53    1
   54    24    54    1
   55    50    54    1
   56    54    55    1
   57    54    56    1
   58    56    57    1
   59    43    58    1
   60    56    58    1
   61    56    59    1
   62    59    60    1
   63    59    61    1
   64    59    62    1
   65    62    63    1
   66    64    65    1
   67    64    66    1
   68    64    67    1
   69    67    68    1
   70    67    69    1
   71    69    70    1
   72    67    71    1
   73    71    72    1
   74    71    73    1
   75    73    74    1
   76    45    75    1
   77    71    75    1
   78    75    76    1
   79    75    77    1
   80    77    78    1
   81    64    79    1
   82    77    79    1
   83    77    80    1
   84    80    81    1
   85    80    82    1
   86    80    83    1
   87    83    84    1
   88    85    86    1
   89    85    87    1
   90    85    88    1
   91    88    89    1
   92    88    90    1
   93    90    91    1
   94    88    92    1
   95    92    93    1
   96    92    94    1
   97    94    95    1
   98    66    96    1
   99    92    96    1
  100    96    97    1
  101    96    98    1
  102    98    99    1
  103    85   100    1
  104    98   100    1
  105    98   101    1
  106   101   102    1
  107   101   103    1
  108   101   104    1
  109   104   105    1
  110   106   107    1
  111    12   108    1
  112   106   108    1
  113   106   109    1
  114   109   110    1
  115   109   111    1
  116   111   112    1
  117   109   113    1
  118   113   114    1
  119   113   115    1
  120   115   116    1
  121    87   117    1
  122   113   117    1
  123   117   118    1
  124   117   119    1
  125   119   120    1
  126   106   121    1
  127   119   121    1
  128   119   122    1
  129   122   123    1
  130   122   124    1
  131   122   125    1
  132   125   126    1
  133   127   128    1
  134   127   129    1
  135   127   130    1
  136   127   131    1
  137   131   132    1
  138   131   133    1
  139   133   134    1
  140   133   135    1
  141   133   136    1
  142   131   137    1
  143   137   138    1
  144   137   139    1
  145   137   140    1
  146   140   141    1
  147   140   142    1
  148   140   143    1
  149   143   144    1
  150   143   145    1
  151   143   146    1
@<TRIPOS>SUBSTRUCTURE
       1 MOL1            1 RESIDUE      1      MOL     
       2 MOL1          146 RESIDUE      1      MOL     
@<SCITEGIC>MOL_PROPERTY
VM2 Rank
SciTegic.value.IntegerValue
1

@<SCITEGIC>MOL_PROPERTY
Conf_Id
SciTegic.value.IntegerValue
19075

@<SCITEGIC>MOL_PROPERTY
Probability
SciTegic.value.DoubleValue
1.30

@<SCITEGIC>MOL_PROPERTY
Sum Probability
SciTegic.value.DoubleValue
1.30

@<SCITEGIC>MOL_PROPERTY
Delta G
SciTegic.value.DoubleValue
0.000

@<SCITEGIC>MOL_PROPERTY
G
SciTegic.value.DoubleValue
525.148

@<SCITEGIC>MOL_PROPERTY
E
SciTegic.value.DoubleValue
332.547

@<SCITEGIC>MOL_PROPERTY
-TS
SciTegic.value.DoubleValue
192.602

@<SCITEGIC>MOL_PROPERTY
U+W
SciTegic.value.DoubleValue
203.776

@<SCITEGIC>MOL_PROPERTY
U
SciTegic.value.DoubleValue
277.385

@<SCITEGIC>MOL_PROPERTY
W
SciTegic.value.DoubleValue
-73.609

@<SCITEGIC>MOL_PROPERTY
W(PB)
SciTegic.value.DoubleValue
-79.840

@<SCITEGIC>MOL_PROPERTY
W(SA)
SciTegic.value.DoubleValue
6.231

@<SCITEGIC>MOL_PROPERTY
Valence
SciTegic.value.DoubleValue
145.274

@<SCITEGIC>MOL_PROPERTY
Coulomb
SciTegic.value.DoubleValue
151.514

@<SCITEGIC>MOL_PROPERTY
VdW
SciTegic.value.DoubleValue
-19.403

@<SCITEGIC>MOL_PROPERTY
VdW6
SciTegic.value.DoubleValue
-168.332

@<SCITEGIC>MOL_PROPERTY
VdW12
SciTegic.value.DoubleValue
148.928

@<SCITEGIC>MOL_PROPERTY
Bond
SciTegic.value.DoubleValue
4.266

@<SCITEGIC>MOL_PROPERTY
Angle
SciTegic.value.DoubleValue
10.672

@<SCITEGIC>MOL_PROPERTY
Pdih
SciTegic.value.DoubleValue
130.336

@<SCITEGIC>MOL_PROPERTY
Idih
SciTegic.value.DoubleValue
0.000

@<SCITEGIC>MOL_PROPERTY
Tether
SciTegic.value.DoubleValue
0.000

@<TRIPOS>MOLECULE
CD_guest-s10_vm2_single.mol2 : vm2 host+ligand conformer 2
         146         151           2
SMALL
USER_CHARGES
 
@<TRIPOS>ATOM
       1    C1      16.171392   15.036111   21.542578 C.3        1 MOL1         0.2972
       2    H1      15.083330   14.908985   21.608559 H          1 MOL1         0.0751
       3    O1      16.540078   16.417262   21.340463 O.3        1 MOL1        -0.3740
       4    C2      16.846053   14.518706   22.835956 C.3        1 MOL1         0.1003
       5    H2      16.636837   13.443730   22.912823 H          1 MOL1         0.0783
       6    O2      16.331349   15.186457   23.995904 O.3        1 MOL1        -0.5519
       7    H3      16.933732   14.915722   24.724902 H          1 MOL1         0.3769
       8    C3      18.376173   14.705213   22.756307 C.3        1 MOL1         0.1053
       9    H4      18.573570   15.781662   22.764712 H          1 MOL1         0.0783
      10    O3      19.002567   14.087941   23.887316 O.3        1 MOL1        -0.5519
      11    H5      19.969629   14.042486   23.690608 H          1 MOL1         0.3769
      12    C4      18.966747   14.121562   21.449254 C.3        1 MOL1         0.1018
      13    H6      19.056665   13.033354   21.565950 H          1 MOL1         0.0783
      14    C5      18.124756   14.457708   20.183609 C.3        1 MOL1         0.1043
      15    H7      18.311264   15.506727   19.918840 H          1 MOL1         0.0783
      16    O4      16.710227   14.269188   20.445279 O.3        1 MOL1        -0.3740
      17    C6      18.493602   13.597515   18.954423 C.3        1 MOL1         0.0138
      18    H8      19.527165   13.818841   18.657561 H          1 MOL1         0.0794
      19    H9      17.845863   13.884419   18.115192 H          1 MOL1         0.0794
      20    O5      18.349879   12.202807   19.238203 O.3        1 MOL1        -0.5486
      21    H10     17.414369   12.071652   19.510684 H          1 MOL1         0.3769
      22    C7      14.899261   20.201589   20.840831 C.3        1 MOL1         0.2972
      23    H11     14.256143   21.050603   20.575163 H          1 MOL1         0.0751
      24    O6      16.202774   20.639856   21.274887 O.3        1 MOL1        -0.3740
      25    C8      14.251792   19.352363   21.966560 C.3        1 MOL1         0.1003
      26    H12     13.278890   19.005136   21.594942 H          1 MOL1         0.0783
      27    O7      14.053643   20.121509   23.160244 O.3        1 MOL1        -0.5519
      28    H13     13.732108   19.471834   23.825319 H          1 MOL1         0.3769
      29    C9      15.110884   18.106888   22.289075 C.3        1 MOL1         0.1053
      30    H14     16.044798   18.451849   22.752351 H          1 MOL1         0.0783
      31    O8      14.401718   17.262104   23.202902 O.3        1 MOL1        -0.5519
      32    H15     15.043771   16.573266   23.507511 H          1 MOL1         0.3769
      33    C10     15.470681   17.319182   21.002580 C.3        1 MOL1         0.1018
      34    H16     14.584121   16.784911   20.635219 H          1 MOL1         0.0783
      35    C11     15.997317   18.239990   19.871931 C.3        1 MOL1         0.1043
      36    H17     16.995708   18.607047   20.142329 H          1 MOL1         0.0783
      37    O9      15.080164   19.345964   19.693234 O.3        1 MOL1        -0.3740
      38    C12     16.098151   17.500156   18.522029 C.3        1 MOL1         0.0138
      39    H18     15.091269   17.216500   18.187451 H          1 MOL1         0.0794
      40    H19     16.676822   16.577202   18.653758 H          1 MOL1         0.0794
      41    O10     16.732714   18.337205   17.553864 O.3        1 MOL1        -0.5486
      42    H20     16.229990   19.181735   17.551511 H          1 MOL1         0.3769
      43    C13     18.452020   24.055398   21.840675 C.3        1 MOL1         0.2972
      44    H21     18.834991   25.068229   22.019248 H          1 MOL1         0.0751
      45    O11     19.501617   23.148909   21.446602 O.3        1 MOL1        -0.3740
      46    C14     17.764758   23.514449   23.118573 C.3        1 MOL1         0.1003
      47    H22     16.925364   24.184634   23.345633 H          1 MOL1         0.0783
      48    O12     18.664029   23.494710   24.235174 O.3        1 MOL1        -0.5519
      49    H23     18.180602   22.993406   24.929483 H          1 MOL1         0.3769
      50    C15     17.190383   22.100516   22.882953 C.3        1 MOL1         0.1053
      51    H24     18.031398   21.407709   22.753525 H          1 MOL1         0.0783
      52    O13     16.406483   21.717298   24.019056 O.3        1 MOL1        -0.5519
      53    H25     15.739486   21.062787   23.697800 H          1 MOL1         0.3769
      54    C16     16.317443   22.037657   21.606498 C.3        1 MOL1         0.1018
      55    H26     15.340546   22.485826   21.833587 H          1 MOL1         0.0783
      56    C17     16.965276   22.760383   20.389665 C.3        1 MOL1         0.1043
      57    H27     17.796532   22.142101   20.025295 H          1 MOL1         0.0783
      58    O14     17.464294   24.063016   20.788280 O.3        1 MOL1        -0.3740
      59    C18     15.993651   22.973779   19.207457 C.3        1 MOL1         0.0138
      60    H28     15.700326   21.996412   18.802505 H          1 MOL1         0.0794
      61    H29     16.522393   23.510817   18.408581 H          1 MOL1         0.0794
      62    O15     14.835011   23.706761   19.615577 O.3        1 MOL1        -0.5486
      63    H30     15.162334   24.558050   19.982607 H          1 MOL1         0.3769
      64    C19     23.575628   22.869808   20.883039 C.3        1 MOL1         0.2972
      65    H31     24.637331   22.995817   20.634791 H          1 MOL1         0.0751
      66    O16     23.259834   21.494592   21.184308 O.3        1 MOL1        -0.3740
      67    C20     23.162835   23.776300   22.072623 C.3        1 MOL1         0.1003
      68    H32     23.300682   24.816950   21.750972 H          1 MOL1         0.0783
      69    O17     23.963608   23.540603   23.236843 O.3        1 MOL1        -0.5519
      70    H33     23.563988   24.108589   23.934221 H          1 MOL1         0.3769
      71    C21     21.666341   23.579069   22.410150 C.3        1 MOL1         0.1053
      72    H34     21.533470   22.556539   22.789742 H          1 MOL1         0.0783
      73    O18     21.276761   24.521045   23.415975 O.3        1 MOL1        -0.5519
      74    H35     20.401509   24.212935   23.760232 H          1 MOL1         0.3769
      75    C22     20.777940   23.744017   21.148259 C.3        1 MOL1         0.1018
      76    H36     20.684648   24.809791   20.899721 H          1 MOL1         0.0783
      77    C23     21.334552   22.995167   19.907367 C.3        1 MOL1         0.1043
      78    H37     21.161119   21.918968   20.033316 H          1 MOL1         0.0783
      79    O19     22.752825   23.263546   19.764491 O.3        1 MOL1        -0.3740
      80    C24     20.638213   23.444760   18.606465 C.3        1 MOL1         0.0138
      81    H38     20.871211   24.501061   18.416388 H          1 MOL1         0.0794
      82    H39     19.550311   23.359668   18.729247 H          1 MOL1         0.0794
      83    O20     21.070487   22.630435   17.515151 O.3        1 MOL1        -0.5486
      84    H40     22.053479   22.649817   17.533044 H          1 MOL1         0.3769
      85    C25     24.767259   17.789959   22.100194 C.3        1 MOL1         0.2972
      86    H41     25.364339   16.918589   22.396882 H          1 MOL1         0.0751
      87    O21     23.538142   17.396554   21.452866 O.3        1 MOL1        -0.3740
      88    C26     24.417989   18.647346   23.342432 C.3        1 MOL1         0.1003
      89    H42     25.365373   18.962299   23.798417 H          1 MOL1         0.0783
      90    O22     23.666948   17.875196   24.295819 O.3        1 MOL1        -0.5519
      91    H43     23.885722   16.926303   24.133602 H          1 MOL1         0.3769
      92    C27     23.634572   19.918949   22.929883 C.3        1 MOL1         0.1053
      93    H44     22.646158   19.605536   22.578246 H          1 MOL1         0.0783
      94    O23     23.487223   20.787897   24.058718 O.3        1 MOL1        -0.5519
      95    H45     23.525034   21.712099   23.715145 H          1 MOL1         0.3769
      96    C28     24.302808   20.684342   21.759951 C.3        1 MOL1         0.1018
      97    H46     25.131288   21.289630   22.152009 H          1 MOL1         0.0783
      98    C29     24.808113   19.744072   20.629430 C.3        1 MOL1         0.1043
      99    H47     23.936483   19.379806   20.070037 H          1 MOL1         0.0783
     100    O24     25.522663   18.618502   21.192455 O.3        1 MOL1        -0.3740
     101    C30     25.746234   20.443660   19.620951 C.3        1 MOL1         0.0138
     102    H48     25.184699   21.225293   19.092456 H          1 MOL1         0.0794
     103    H49     26.067696   19.709097   18.870335 H          1 MOL1         0.0794
     104    O25     26.882714   21.011767   20.278082 O.3        1 MOL1        -0.5486
     105    H50     27.325534   20.272259   20.751085 H          1 MOL1         0.3769
     106    C31     21.334189   13.913632   20.859691 C.3        1 MOL1         0.2972
     107    H51     20.981299   12.915560   20.569492 H          1 MOL1         0.0751
     108    O26     20.249186   14.757314   21.290710 O.3        1 MOL1        -0.3740
     109    C32     22.366861   13.823343   22.013939 C.3        1 MOL1         0.1003
     110    H52     23.212797   13.222913   21.653904 H          1 MOL1         0.0783
     111    O27     21.797664   13.200381   23.179271 O.3        1 MOL1        -0.5519
     112    H53     21.681823   12.247343   22.978055 H          1 MOL1         0.3769
     113    C33     22.901435   15.229326   22.381307 C.3        1 MOL1         0.1053
     114    H54     22.068793   15.797753   22.814149 H          1 MOL1         0.0783
     115    O28     23.939316   15.082497   23.356944 O.3        1 MOL1        -0.5519
     116    H55     23.595440   14.406322   23.984242 H          1 MOL1         0.3769
     117    C34     23.411053   15.996579   21.127054 C.3        1 MOL1         0.1018
     118    H56     24.372105   15.576705   20.801621 H          1 MOL1         0.0783
     119    C35     22.403070   15.920512   19.948450 C.3        1 MOL1         0.1043
     120    H57     21.533416   16.544407   20.193224 H          1 MOL1         0.0783
     121    O29     21.981089   14.550611   19.739496 O.3        1 MOL1        -0.3740
     122    C36     22.993092   16.435104   18.616452 C.3        1 MOL1         0.0138
     123    H58     23.303073   17.480916   18.740565 H          1 MOL1         0.0794
     124    H59     22.206220   16.413577   17.850732 H          1 MOL1         0.0794
     125    O30     24.106474   15.636961   18.204296 O.3        1 MOL1        -0.5486
     126    H60     23.785418   14.707741   18.193751 H          1 MOL1         0.3769
     127    N1      21.268312   19.224858   25.274167 N.4        1 MOL1        -0.5937
     128    H1      21.184895   18.380926   25.844510 H          1 MOL1         0.3684
     129    H2      21.267396   20.034696   25.898716 H          1 MOL1         0.3684
     130    H3      22.208450   19.196017   24.836412 H          1 MOL1         0.3684
     131    C1      20.180746   19.317759   24.239460 C.3        1 MOL1         0.1270
     132    H4      20.362553   20.245392   23.688689 H          1 MOL1         0.0960
     133    C2      18.805188   19.407187   24.923178 C.3        1 MOL1        -0.2382
     134    H5      18.605410   18.515438   25.529916 H          1 MOL1         0.1009
     135    H6      17.996958   19.500771   24.190840 H          1 MOL1         0.1009
     136    H7      18.755103   20.284896   25.579048 H          1 MOL1         0.1009
     137    C3      20.238247   18.135319   23.244506 C.3        1 MOL1        -0.1392
     138    H8      21.279444   17.944640   22.964993 H          1 MOL1         0.0998
     139    H9      19.899206   17.224989   23.753482 H          1 MOL1         0.0998
     140    C4      19.424620   18.351047   21.942823 C.3        1 MOL1        -0.1302
     141    H10     18.364774   18.511883   22.175634 H          1 MOL1         0.0998
     142    H11     19.465172   17.433860   21.340147 H          1 MOL1         0.0998
     143    C5      19.956053   19.524104   21.089305 C.3        1 MOL1        -0.2317
     144    H12     21.002234   19.359583   20.799529 H          1 MOL1         0.1009
     145    H13     19.898437   20.475537   21.630458 H          1 MOL1         0.1009
     146    H14     19.366410   19.630812   20.169442 H          1 MOL1         0.1009
@<TRIPOS>BOND
    1     1     2    1
    2     1     3    1
    3     1     4    1
    4     4     5    1
    5     4     6    1
    6     6     7    1
    7     4     8    1
    8     8     9    1
    9     8    10    1
   10    10    11    1
   11     8    12    1
   12    12    13    1
   13    12    14    1
   14    14    15    1
   15     1    16    1
   16    14    16    1
   17    14    17    1
   18    17    18    1
   19    17    19    1
   20    17    20    1
   21    20    21    1
   22    22    23    1
   23    22    24    1
   24    22    25    1
   25    25    26    1
   26    25    27    1
   27    27    28    1
   28    25    29    1
   29    29    30    1
   30    29    31    1
   31    31    32    1
   32     3    33    1
   33    29    33    1
   34    33    34    1
   35    33    35    1
   36    35    36    1
   37    22    37    1
   38    35    37    1
   39    35    38    1
   40    38    39    1
   41    38    40    1
   42    38    41    1
   43    41    42    1
   44    43    44    1
   45    43    45    1
   46    43    46    1
   47    46    47    1
   48    46    48    1
   49    48    49    1
   50    46    50    1
   51    50    51    1
   52    50    52    1
   53    52    53    1
   54    24    54    1
   55    50    54    1
   56    54    55    1
   57    54    56    1
   58    56    57    1
   59    43    58    1
   60    56    58    1
   61    56    59    1
   62    59    60    1
   63    59    61    1
   64    59    62    1
   65    62    63    1
   66    64    65    1
   67    64    66    1
   68    64    67    1
   69    67    68    1
   70    67    69    1
   71    69    70    1
   72    67    71    1
   73    71    72    1
   74    71    73    1
   75    73    74    1
   76    45    75    1
   77    71    75    1
   78    75    76    1
   79    75    77    1
   80    77    78    1
   81    64    79    1
   82    77    79    1
   83    77    80    1
   84    80    81    1
   85    80    82    1
   86    80    83    1
   87    83    84    1
   88    85    86    1
   89    85    87    1
   90    85    88    1
   91    88    89    1
   92    88    90    1
   93    90    91    1
   94    88    92    1
   95    92    93    1
   96    92    94    1
   97    94    95    1
   98    66    96    1
   99    92    96    1
  100    96    97    1
  101    96    98    1
  102    98    99    1
  103    85   100    1
  104    98   100    1
  105    98   101    1
  106   101   102    1
  107   101   103    1
  108   101   104    1
  109   104   105    1
  110   106   107    1
  111    12   108    1
  112   106   108    1
  113   106   109    1
  114   109   110    1
  115   109   111    1
  116   111   112    1
  117   109   113    1
  118   113   114    1
  119   113   115    1
  120   115   116    1
  121    87   117    1
  122   113   117    1
  123   117   118    1
  124   117   119    1
  125   119   120    1
  126   106   121    1
  127   119   121    1
  128   119   122    1
  129   122   123    1
  130   122   124    1
  131   122   125    1
  132   125   126    1
  133   127   128    1
  134   127   129    1
  135   127   130    1
  136   127   131    1
  137   131   132    1
  138   131   133    1
  139   133   134    1
  140   133   135    1
  141   133   136    1
  142   131   137    1
  143   137   138    1
  144   137   139    1
  145   137   140    1
  146   140   141    1
  147   140   142    1
  148   140   143    1
  149   143   144    1
  150   143   145    1
  151   143   146    1
@<TRIPOS>SUBSTRUCTURE
       1 MOL1            1 RESIDUE      1      MOL     
       2 MOL1          146 RESIDUE      1      MOL     
@<SCITEGIC>MOL_PROPERTY
VM2 Rank
SciTegic.value.IntegerValue
2

@<SCITEGIC>MOL_PROPERTY
Conf_Id
SciTegic.value.IntegerValue
14801

@<SCITEGIC>MOL_PROPERTY
Probability
SciTegic.value.DoubleValue
1.29

@<SCITEGIC>MOL_PROPERTY
Sum Probability
SciTegic.value.DoubleValue
2.59

@<SCITEGIC>MOL_PROPERTY
Delta G
SciTegic.value.DoubleValue
0.005

@<SCITEGIC>MOL_PROPERTY
G
SciTegic.value.DoubleValue
525.154

@<SCITEGIC>MOL_PROPERTY
E
SciTegic.value.DoubleValue
332.564

@<SCITEGIC>MOL_PROPERTY
-TS
SciTegic.value.DoubleValue
192.590

@<SCITEGIC>MOL_PROPERTY
U+W
SciTegic.value.DoubleValue
203.793

@<SCITEGIC>MOL_PROPERTY
U
SciTegic.value.DoubleValue
278.053

@<SCITEGIC>MOL_PROPERTY
W
SciTegic.value.DoubleValue
-74.260

@<SCITEGIC>MOL_PROPERTY
W(PB)
SciTegic.value.DoubleValue
-80.372

@<SCITEGIC>MOL_PROPERTY
W(SA)
SciTegic.value.DoubleValue
6.111

@<SCITEGIC>MOL_PROPERTY
Valence
SciTegic.value.DoubleValue
145.007

@<SCITEGIC>MOL_PROPERTY
Coulomb
SciTegic.value.DoubleValue
155.777

@<SCITEGIC>MOL_PROPERTY
VdW
SciTegic.value.DoubleValue
-22.730

@<SCITEGIC>MOL_PROPERTY
VdW6
SciTegic.value.DoubleValue
-171.988

@<SCITEGIC>MOL_PROPERTY
VdW12
SciTegic.value.DoubleValue
149.258

@<SCITEGIC>MOL_PROPERTY
Bond
SciTegic.value.DoubleValue
4.262

@<SCITEGIC>MOL_PROPERTY
Angle
SciTegic.value.DoubleValue
10.351

@<SCITEGIC>MOL_PROPERTY
Pdih
SciTegic.value.DoubleValue
130.394

@<SCITEGIC>MOL_PROPERTY
Idih
SciTegic.value.DoubleValue
0.000

@<SCITEGIC>MOL_PROPERTY
Tether
SciTegic.value.DoubleValue
0.000

@<TRIPOS>MOLECULE
CD_guest-s10_vm2_single.mol2 : vm2 host+ligand conformer 3
         146         151           2
SMALL
USER_CHARGES
 
@<TRIPOS>ATOM
       1    C1      16.164998   15.012559   21.571307 C.3        1 MOL1         0.2972
       2    H1      15.076348   14.890547   21.637304 H          1 MOL1         0.0751
       3    O1      16.539388   16.389579   21.351880 O.3        1 MOL1        -0.3740
       4    C2      16.835990   14.508720   22.871982 C.3        1 MOL1         0.1003
       5    H2      16.622941   13.435489   22.961663 H          1 MOL1         0.0783
       6    O2      16.322169   15.192228   24.023075 O.3        1 MOL1        -0.5519
       7    H3      16.922769   14.928311   24.756045 H          1 MOL1         0.3769
       8    C3      18.366822   14.688894   22.792219 C.3        1 MOL1         0.1053
       9    H4      18.567971   15.764671   22.787357 H          1 MOL1         0.0783
      10    O3      18.989571   14.083776   23.931784 O.3        1 MOL1        -0.5519
      11    H5      19.956917   14.033811   23.737577 H          1 MOL1         0.3769
      12    C4      18.957143   14.086848   21.493457 C.3        1 MOL1         0.1018
      13    H6      19.043820   12.999965   21.624132 H          1 MOL1         0.0783
      14    C5      18.117874   14.409285   20.222450 C.3        1 MOL1         0.1043
      15    H7      18.308671   15.454000   19.944115 H          1 MOL1         0.0783
      16    O4      16.702289   14.229578   20.484648 O.3        1 MOL1        -0.3740
      17    C6      18.485132   13.531549   19.005255 C.3        1 MOL1         0.0138
      18    H8      19.520036   13.744807   18.707153 H          1 MOL1         0.0794
      19    H9      17.839817   13.809968   18.161313 H          1 MOL1         0.0794
      20    O5      18.335372   12.141283   19.307132 O.3        1 MOL1        -0.5486
      21    H10     17.398964   12.017494   19.579985 H          1 MOL1         0.3769
      22    C7      14.909904   20.174072   20.812056 C.3        1 MOL1         0.2972
      23    H11     14.268975   21.021567   20.536447 H          1 MOL1         0.0751
      24    O6      16.213499   20.614285   21.243609 O.3        1 MOL1        -0.3740
      25    C8      14.258610   19.337999   21.945444 C.3        1 MOL1         0.1003
      26    H12     13.284754   18.990756   21.576357 H          1 MOL1         0.0783
      27    O7      14.062380   20.119513   23.131470 O.3        1 MOL1        -0.5519
      28    H13     13.736834   19.477817   23.802294 H          1 MOL1         0.3769
      29    C9      15.112622   18.092502   22.281255 C.3        1 MOL1         0.1053
      30    H14     16.046350   18.438593   22.744041 H          1 MOL1         0.0783
      31    O8      14.397907   17.258767   23.200849 O.3        1 MOL1        -0.5519
      32    H15     15.037466   16.572293   23.515841 H          1 MOL1         0.3769
      33    C10     15.473665   17.291751   21.003063 C.3        1 MOL1         0.1018
      34    H16     14.586651   16.756928   20.637613 H          1 MOL1         0.0783
      35    C11     16.006629   18.201062   19.866186 C.3        1 MOL1         0.1043
      36    H17     17.004268   18.569041   20.137859 H          1 MOL1         0.0783
      37    O9      15.091813   19.306579   19.673612 O.3        1 MOL1        -0.3740
      38    C12     16.113352   17.449652   18.523208 C.3        1 MOL1         0.0138
      39    H18     15.107891   17.164149   18.185931 H          1 MOL1         0.0794
      40    H19     16.690489   16.527329   18.665659 H          1 MOL1         0.0794
      41    O10     16.753760   18.278314   17.551500 O.3        1 MOL1        -0.5486
      42    H20     16.248917   19.121469   17.536805 H          1 MOL1         0.3769
      43    C13     18.467432   24.030777   21.776554 C.3        1 MOL1         0.2972
      44    H21     18.851252   25.044819   21.946197 H          1 MOL1         0.0751
      45    O11     19.515593   23.121933   21.381714 O.3        1 MOL1        -0.3740
      46    C14     17.786288   23.498633   23.061780 C.3        1 MOL1         0.1003
      47    H22     16.949378   24.171949   23.288747 H          1 MOL1         0.0783
      48    O12     18.690050   23.483772   24.174770 O.3        1 MOL1        -0.5519
      49    H23     18.208027   22.988534   24.874372 H          1 MOL1         0.3769
      50    C15     17.207158   22.084580   22.838502 C.3        1 MOL1         0.1053
      51    H24     18.045897   21.388648   22.711082 H          1 MOL1         0.0783
      52    O13     16.426219   21.711619   23.980102 O.3        1 MOL1        -0.5519
      53    H25     15.755383   21.057906   23.665356 H          1 MOL1         0.3769
      54    C16     16.328593   22.014026   21.566347 C.3        1 MOL1         0.1018
      55    H26     15.352369   22.462700   21.795361 H          1 MOL1         0.0783
      56    C17     16.970047   22.730057   20.342431 C.3        1 MOL1         0.1043
      57    H27     17.799414   22.110173   19.977040 H          1 MOL1         0.0783
      58    O14     17.471216   24.033644   20.732305 O.3        1 MOL1        -0.3740
      59    C18     15.992682   22.938885   19.164100 C.3        1 MOL1         0.0138
      60    H28     15.699102   21.960085   18.762843 H          1 MOL1         0.0794
      61    H29     16.517131   23.475031   18.361746 H          1 MOL1         0.0794
      62    O15     14.834659   23.671103   19.575307 O.3        1 MOL1        -0.5486
      63    H30     15.162409   24.524704   19.936592 H          1 MOL1         0.3769
      64    C19     23.587600   22.823317   20.825259 C.3        1 MOL1         0.2972
      65    H31     24.651332   22.939120   20.580691 H          1 MOL1         0.0751
      66    O16     23.261239   21.452935   21.137653 O.3        1 MOL1        -0.3740
      67    C20     23.177433   23.744279   22.004555 C.3        1 MOL1         0.1003
      68    H32     23.318878   24.781010   21.671931 H          1 MOL1         0.0783
      69    O17     23.977255   23.517755   23.171281 O.3        1 MOL1        -0.5519
      70    H33     23.577275   24.092209   23.863220 H          1 MOL1         0.3769
      71    C21     21.680447   23.556084   22.344165 C.3        1 MOL1         0.1053
      72    H34     21.542812   22.535753   22.727788 H          1 MOL1         0.0783
      73    O18     21.297618   24.503188   23.347926 O.3        1 MOL1        -0.5519
      74    H35     20.421082   24.200916   23.693896 H          1 MOL1         0.3769
      75    C22     20.791416   23.720437   21.082712 C.3        1 MOL1         0.1018
      76    H36     20.694902   24.786856   20.838842 H          1 MOL1         0.0783
      77    C23     21.350788   22.973242   19.839782 C.3        1 MOL1         0.1043
      78    H37     21.168934   21.898804   19.968442 H          1 MOL1         0.0783
      79    O19     22.774747   23.212212   19.698521 O.3        1 MOL1        -0.3740
      80    C24     20.667111   23.409091   18.524873 C.3        1 MOL1         0.0138
      81    H38     19.587411   23.224942   18.603594 H          1 MOL1         0.0794
      82    H39     21.049514   22.786759   17.704865 H          1 MOL1         0.0794
      83    O20     20.911721   24.792062   18.252520 O.3        1 MOL1        -0.5486
      84    H40     21.888283   24.904947   18.273873 H          1 MOL1         0.3769
      85    C25     24.761412   17.753771   22.100096 C.3        1 MOL1         0.2972
      86    H41     25.358096   16.886042   22.408077 H          1 MOL1         0.0751
      87    O21     23.532275   17.352492   21.457652 O.3        1 MOL1        -0.3740
      88    C26     24.412661   18.627405   23.331146 C.3        1 MOL1         0.1003
      89    H42     25.360343   18.947929   23.782620 H          1 MOL1         0.0783
      90    O22     23.662097   17.867954   24.294959 O.3        1 MOL1        -0.5519
      91    H43     23.879937   16.916897   24.144565 H          1 MOL1         0.3769
      92    C27     23.629737   19.894036   22.902373 C.3        1 MOL1         0.1053
      93    H44     22.641431   19.577058   22.553947 H          1 MOL1         0.0783
      94    O23     23.482404   20.776850   24.020381 O.3        1 MOL1        -0.5519
      95    H45     23.526546   21.696873   23.666561 H          1 MOL1         0.3769
      96    C28     24.300018   20.644039   21.723730 C.3        1 MOL1         0.1018
      97    H46     25.130899   21.250053   22.109593 H          1 MOL1         0.0783
      98    C29     24.803428   19.689094   20.604731 C.3        1 MOL1         0.1043
      99    H47     23.931111   19.318715   20.050515 H          1 MOL1         0.0783
     100    O24     25.517157   18.570048   21.181602 O.3        1 MOL1        -0.3740
     101    C30     25.741967   20.374851   19.587118 C.3        1 MOL1         0.0138
     102    H48     25.181128   21.150421   19.048963 H          1 MOL1         0.0794
     103    H49     26.062364   19.630518   18.845728 H          1 MOL1         0.0794
     104    O25     26.879324   20.949939   20.236630 O.3        1 MOL1        -0.5486
     105    H50     27.321835   20.215861   20.718307 H          1 MOL1         0.3769
     106    C31     21.324970   13.864825   20.910665 C.3        1 MOL1         0.2972
     107    H51     20.970204   12.863487   20.634338 H          1 MOL1         0.0751
     108    O26     20.241480   14.717008   21.328534 O.3        1 MOL1        -0.3740
     109    C32     22.356324   13.788812   22.067082 C.3        1 MOL1         0.1003
     110    H52     23.201581   13.181983   21.716293 H          1 MOL1         0.0783
     111    O27     21.784852   13.183103   23.240367 O.3        1 MOL1        -0.5519
     112    H53     21.667925   12.227487   23.052429 H          1 MOL1         0.3769
     113    C33     22.892934   15.198868   22.415386 C.3        1 MOL1         0.1053
     114    H54     22.060944   15.774506   22.839883 H          1 MOL1         0.0783
     115    O28     23.930072   15.063792   23.393505 O.3        1 MOL1        -0.5519
     116    H55     23.584723   14.396995   24.029966 H          1 MOL1         0.3769
     117    C34     23.404624   15.948157   21.151156 C.3        1 MOL1         0.1018
     118    H56     24.365805   15.523078   20.832930 H          1 MOL1         0.0783
     119    C35     22.398365   15.856506   19.972201 C.3        1 MOL1         0.1043
     120    H57     21.529316   16.485253   20.206561 H          1 MOL1         0.0783
     121    O29     21.974434   14.484458   19.782299 O.3        1 MOL1        -0.3740
     122    C36     22.991414   16.350820   18.633900 C.3        1 MOL1         0.0138
     123    H58     23.303352   17.397653   18.743595 H          1 MOL1         0.0794
     124    H59     22.205672   16.319833   17.867350 H          1 MOL1         0.0794
     125    O30     24.103849   15.544747   18.234890 O.3        1 MOL1        -0.5486
     126    H60     23.781064   14.616059   18.237347 H          1 MOL1         0.3769
     127    N1      21.268967   19.231088   25.264038 N.4        1 MOL1        -0.5937
     128    H1      21.187367   18.392293   25.842162 H          1 MOL1         0.3684
     129    H2      21.268633   20.046649   25.881072 H          1 MOL1         0.3684
     130    H3      22.208206   19.198928   24.824540 H          1 MOL1         0.3684
     131    C1      20.179610   19.313700   24.230464 C.3        1 MOL1         0.1270
     132    H4      20.360363   20.235945   23.670386 H          1 MOL1         0.0960
     133    C2      18.805314   19.409587   24.915713 C.3        1 MOL1        -0.2382
     134    H5      18.755750   20.294407   25.561989 H          1 MOL1         0.1009
     135    H6      18.607311   18.524406   25.532563 H          1 MOL1         0.1009
     136    H7      17.995767   19.494420   24.183783 H          1 MOL1         0.1009
     137    C3      20.235021   18.121554   23.247038 C.3        1 MOL1        -0.1392
     138    H8      21.275882   17.924458   22.970870 H          1 MOL1         0.0998
     139    H9      19.892202   17.217322   23.764296 H          1 MOL1         0.0998
     140    C4      19.423730   18.327692   21.942396 C.3        1 MOL1        -0.1302
     141    H10     18.364827   18.497796   22.172889 H          1 MOL1         0.0998
     142    H11     19.458839   17.403369   21.350271 H          1 MOL1         0.0998
     143    C5      19.962880   19.487696   21.075790 C.3        1 MOL1        -0.2317
     144    H12     21.006796   19.310770   20.785292 H          1 MOL1         0.1009
     145    H13     19.915115   20.445144   21.607453 H          1 MOL1         0.1009
     146    H14     19.371043   19.589316   20.156924 H          1 MOL1         0.1009
@<TRIPOS>BOND
    1     1     2    1
    2     1     3    1
    3     1     4    1
    4     4     5    1
    5     4     6    1
    6     6     7    1
    7     4     8    1
    8     8     9    1
    9     8    10    1
   10    10    11    1
   11     8    12    1
   12    12    13    1
   13    12    14    1
   14    14    15    1
   15     1    16    1
   16    14    16    1
   17    14    17    1
   18    17    18    1
   19    17    19    1
   20    17    20    1
   21    20    21    1
   22    22    23    1
   23    22    24    1
   24    22    25    1
   25    25    26    1
   26    25    27    1
   27    27    28    1
   28    25    29    1
   29    29    30    1
   30    29    31    1
   31    31    32    1
   32     3    33    1
   33    29    33    1
   34    33    34    1
   35    33    35    1
   36    35    36    1
   37    22    37    1
   38    35    37    1
   39    35    38    1
   40    38    39    1
   41    38    40    1
   42    38    41    1
   43    41    42    1
   44    43    44    1
   45    43    45    1
   46    43    46    1
   47    46    47    1
   48    46    48    1
   49    48    49    1
   50    46    50    1
   51    50    51    1
   52    50    52    1
   53    52    53    1
   54    24    54    1
   55    50    54    1
   56    54    55    1
   57    54    56    1
   58    56    57    1
   59    43    58    1
   60    56    58    1
   61    56    59    1
   62    59    60    1
   63    59    61    1
   64    59    62    1
   65    62    63    1
   66    64    65    1
   67    64    66    1
   68    64    67    1
   69    67    68    1
   70    67    69    1
   71    69    70    1
   72    67    71    1
   73    71    72    1
   74    71    73    1
   75    73    74    1
   76    45    75    1
   77    71    75    1
   78    75    76    1
   79    75    77    1
   80    77    78    1
   81    64    79    1
   82    77    79    1
   83    77    80    1
   84    80    81    1
   85    80    82    1
   86    80    83    1
   87    83    84    1
   88    85    86    1
   89    85    87    1
   90    85    88    1
   91    88    89    1
   92    88    90    1
   93    90    91    1
   94    88    92    1
   95    92    93    1
   96    92    94    1
   97    94    95    1
   98    66    96    1
   99    92    96    1
  100    96    97    1
  101    96    98    1
  102    98    99    1
  103    85   100    1
  104    98   100    1
  105    98   101    1
  106   101   102    1
  107   101   103    1
  108   101   104    1
  109   104   105    1
  110   106   107    1
  111    12   108    1
  112   106   108    1
  113   106   109    1
  114   109   110    1
  115   109   111    1
  116   111   112    1
  117   109   113    1
  118   113   114    1
  119   113   115    1
  120   115   116    1
  121    87   117    1
  122   113   117    1
  123   117   118    1
  124   117   119    1
  125   119   120    1
  126   106   121    1
  127   119   121    1
  128   119   122    1
  129   122   123    1
  130   122   124    1
  131   122   125    1
  132   125   126    1
  133   127   128    1
  134   127   129    1
  135   127   130    1
  136   127   131    1
  137   131   132    1
  138   131   133    1
  139   133   134    1
  140   133   135    1
  141   133   136    1
  142   131   137    1
  143   137   138    1
  144   137   139    1
  145   137   140    1
  146   140   141    1
  147   140   142    1
  148   140   143    1
  149   143   144    1
  150   143   145    1
  151   143   146    1
@<TRIPOS>SUBSTRUCTURE
       1 MOL1            1 RESIDUE      1      MOL     
       2 MOL1          146 RESIDUE      1      MOL     
@<SCITEGIC>MOL_PROPERTY
VM2 Rank
SciTegic.value.IntegerValue
3

@<SCITEGIC>MOL_PROPERTY
Conf_Id
SciTegic.value.IntegerValue
12240

@<SCITEGIC>MOL_PROPERTY
Probability
SciTegic.value.DoubleValue
1.28

@<SCITEGIC>MOL_PROPERTY
Sum Probability
SciTegic.value.DoubleValue
3.88

@<SCITEGIC>MOL_PROPERTY
Delta G
SciTegic.value.DoubleValue
0.008

@<SCITEGIC>MOL_PROPERTY
G
SciTegic.value.DoubleValue
525.156

@<SCITEGIC>MOL_PROPERTY
E
SciTegic.value.DoubleValue
332.382

@<SCITEGIC>MOL_PROPERTY
-TS
SciTegic.value.DoubleValue
192.775

@<SCITEGIC>MOL_PROPERTY
U+W
SciTegic.value.DoubleValue
203.611

@<SCITEGIC>MOL_PROPERTY
U
SciTegic.value.DoubleValue
278.526

@<SCITEGIC>MOL_PROPERTY
W
SciTegic.value.DoubleValue
-74.915

@<SCITEGIC>MOL_PROPERTY
W(PB)
SciTegic.value.DoubleValue
-81.039

@<SCITEGIC>MOL_PROPERTY
W(SA)
SciTegic.value.DoubleValue
6.124

@<SCITEGIC>MOL_PROPERTY
Valence
SciTegic.value.DoubleValue
144.893

@<SCITEGIC>MOL_PROPERTY
Coulomb
SciTegic.value.DoubleValue
156.062

@<SCITEGIC>MOL_PROPERTY
VdW
SciTegic.value.DoubleValue
-22.429

@<SCITEGIC>MOL_PROPERTY
VdW6
SciTegic.value.DoubleValue
-172.397

@<SCITEGIC>MOL_PROPERTY
VdW12
SciTegic.value.DoubleValue
149.968

@<SCITEGIC>MOL_PROPERTY
Bond
SciTegic.value.DoubleValue
4.296

@<SCITEGIC>MOL_PROPERTY
Angle
SciTegic.value.DoubleValue
10.415

@<SCITEGIC>MOL_PROPERTY
Pdih
SciTegic.value.DoubleValue
130.182

@<SCITEGIC>MOL_PROPERTY
Idih
SciTegic.value.DoubleValue
0.000

@<SCITEGIC>MOL_PROPERTY
Tether
SciTegic.value.DoubleValue
0.000

@<TRIPOS>MOLECULE
CD_guest-s10_vm2_single.mol2 : vm2 host+ligand conformer 4
         146         151           2
SMALL
USER_CHARGES
 
@<TRIPOS>ATOM
       1    C1      16.227062   15.107286   20.878178 C.3        1 MOL1         0.2972
       2    H1      15.152746   14.984176   20.689302 H          1 MOL1         0.0751
       3    O1      16.548911   16.457976   21.268030 O.3        1 MOL1        -0.3740
       4    C2      16.712176   14.138360   21.987787 C.3        1 MOL1         0.1003
       5    H2      16.533897   13.115236   21.631831 H          1 MOL1         0.0783
       6    O2      16.003749   14.339113   23.217106 O.3        1 MOL1        -0.5519
       7    H3      16.462000   13.758070   23.865679 H          1 MOL1         0.3769
       8    C3      18.230981   14.303804   22.226520 C.3        1 MOL1         0.1053
       9    H4      18.405090   15.305091   22.642795 H          1 MOL1         0.0783
      10    O3      18.686517   13.309631   23.151492 O.3        1 MOL1        -0.5519
      11    H5      19.656312   13.458228   23.266962 H          1 MOL1         0.3769
      12    C4      19.022838   14.186801   20.901201 C.3        1 MOL1         0.1018
      13    H6      19.050043   13.131233   20.600376 H          1 MOL1         0.0783
      14    C5      18.404503   15.035568   19.756094 C.3        1 MOL1         0.1043
      15    H7      18.594036   16.095853   19.965600 H          1 MOL1         0.0783
      16    O4      16.976000   14.802189   19.682378 O.3        1 MOL1        -0.3740
      17    C6      19.004597   14.714984   18.369490 C.3        1 MOL1         0.0138
      18    H8      20.075245   14.954479   18.379173 H          1 MOL1         0.0794
      19    H9      18.531179   15.364059   17.620794 H          1 MOL1         0.0794
      20    O5      18.809718   13.339355   18.028267 O.3        1 MOL1        -0.5486
      21    H10     17.841272   13.178839   18.080782 H          1 MOL1         0.3769
      22    C7      14.935938   20.171807   21.999264 C.3        1 MOL1         0.2972
      23    H11     14.302827   21.039412   22.225037 H          1 MOL1         0.0751
      24    O6      16.255760   20.572686   21.573315 O.3        1 MOL1        -0.3740
      25    C8      15.055853   19.271067   23.251329 C.3        1 MOL1         0.1003
      26    H12     14.043791   18.929156   23.504625 H          1 MOL1         0.0783
      27    O7      15.600164   19.991300   24.365746 O.3        1 MOL1        -0.5519
      28    H13     15.729973   19.306901   25.058735 H          1 MOL1         0.3769
      29    C9      15.915972   18.023769   22.954014 C.3        1 MOL1         0.1053
      30    H14     16.947670   18.353085   22.787523 H          1 MOL1         0.0783
      31    O8      15.859737   17.137152   24.076768 O.3        1 MOL1        -0.5519
      32    H15     16.068977   16.232566   23.738719 H          1 MOL1         0.3769
      33    C10     15.444272   17.286760   21.676771 C.3        1 MOL1         0.1018
      34    H16     14.552147   16.694828   21.922386 H          1 MOL1         0.0783
      35    C11     15.140924   18.251309   20.494730 C.3        1 MOL1         0.1043
      36    H17     16.098078   18.613055   20.097114 H          1 MOL1         0.0783
      37    O9      14.347868   19.377411   20.947781 O.3        1 MOL1        -0.3740
      38    C12     14.379506   17.575997   19.332419 C.3        1 MOL1         0.0138
      39    H18     15.012726   16.792240   18.895879 H          1 MOL1         0.0794
      40    H19     14.197746   18.322718   18.547869 H          1 MOL1         0.0794
      41    O10     13.141946   17.016728   19.781812 O.3        1 MOL1        -0.5486
      42    H20     12.633714   17.757487   20.181332 H          1 MOL1         0.3769
      43    C13     18.436379   24.062197   20.897178 C.3        1 MOL1         0.2972
      44    H21     18.744935   25.078132   20.620454 H          1 MOL1         0.0751
      45    O11     19.564264   23.225756   21.221193 O.3        1 MOL1        -0.3740
      46    C14     17.497408   24.103666   22.129659 C.3        1 MOL1         0.1003
      47    H22     16.625047   24.712761   21.859254 H          1 MOL1         0.0783
      48    O12     18.153032   24.691011   23.262696 O.3        1 MOL1        -0.5519
      49    H23     17.535369   24.538488   24.012949 H          1 MOL1         0.3769
      50    C15     16.997573   22.685103   22.491313 C.3        1 MOL1         0.1053
      51    H24     17.860655   22.104686   22.842019 H          1 MOL1         0.0783
      52    O13     16.018875   22.776600   23.533451 O.3        1 MOL1        -0.5519
      53    H25     15.875585   21.855726   23.866302 H          1 MOL1         0.3769
      54    C16     16.404147   21.968486   21.249292 C.3        1 MOL1         0.1018
      55    H26     15.441810   22.426997   20.984290 H          1 MOL1         0.0783
      56    C17     17.342086   22.057757   20.018176 C.3        1 MOL1         0.1043
      57    H27     18.231164   21.438224   20.196257 H          1 MOL1         0.0783
      58    O14     17.715412   23.442130   19.811653 O.3        1 MOL1        -0.3740
      59    C18     16.652261   21.568404   18.727822 C.3        1 MOL1         0.0138
      60    H28     15.791835   22.214734   18.508419 H          1 MOL1         0.0794
      61    H29     16.272417   20.550727   18.882287 H          1 MOL1         0.0794
      62    O15     17.579875   21.581812   17.641204 O.3        1 MOL1        -0.5486
      63    H30     17.919995   22.501861   17.586162 H          1 MOL1         0.3769
      64    C19     23.651686   22.845892   21.015980 C.3        1 MOL1         0.2972
      65    H31     24.736189   22.940144   20.875774 H          1 MOL1         0.0751
      66    O16     23.268535   21.480674   21.284219 O.3        1 MOL1        -0.3740
      67    C20     23.150091   23.771018   22.156727 C.3        1 MOL1         0.1003
      68    H32     23.346807   24.805414   21.845625 H          1 MOL1         0.0783
      69    O17     23.825707   23.522943   23.395498 O.3        1 MOL1        -0.5519
      70    H33     23.372526   24.104232   24.047890 H          1 MOL1         0.3769
      71    C21     21.623542   23.616468   22.345895 C.3        1 MOL1         0.1053
      72    H34     21.423056   22.601590   22.715036 H          1 MOL1         0.0783
      73    O18     21.153960   24.580125   23.296555 O.3        1 MOL1        -0.5519
      74    H35     20.166819   24.511430   23.307777 H          1 MOL1         0.3769
      75    C22     20.866576   23.799895   21.008020 C.3        1 MOL1         0.1018
      76    H36     20.817132   24.873141   20.781495 H          1 MOL1         0.0783
      77    C23     21.523926   23.045266   19.817451 C.3        1 MOL1         0.1043
      78    H37     21.307703   21.973837   19.923983 H          1 MOL1         0.0783
      79    O19     22.959410   23.256744   19.818251 O.3        1 MOL1        -0.3740
      80    C24     20.986586   23.495735   18.441206 C.3        1 MOL1         0.0138
      81    H38     19.913512   23.274798   18.385800 H          1 MOL1         0.0794
      82    H39     21.482259   22.906135   17.658452 H          1 MOL1         0.0794
      83    O20     21.214332   24.892271   18.229771 O.3        1 MOL1        -0.5486
      84    H40     22.182322   25.030518   18.331987 H          1 MOL1         0.3769
      85    C25     24.662097   17.775206   22.426143 C.3        1 MOL1         0.2972
      86    H41     25.233606   16.923371   22.815344 H          1 MOL1         0.0751
      87    O21     23.546092   17.340490   21.621339 O.3        1 MOL1        -0.3740
      88    C26     24.123124   18.636897   23.597571 C.3        1 MOL1         0.1003
      89    H42     24.990070   18.961894   24.186873 H          1 MOL1         0.0783
      90    O22     23.252220   17.849485   24.431164 O.3        1 MOL1        -0.5519
      91    H43     23.535464   16.909123   24.328784 H          1 MOL1         0.3769
      92    C27     23.397610   19.904353   23.070740 C.3        1 MOL1         0.1053
      93    H44     22.461057   19.582009   22.601219 H          1 MOL1         0.0783
      94    O23     23.114528   20.804789   24.151400 O.3        1 MOL1        -0.5519
      95    H45     23.282600   21.716335   23.811032 H          1 MOL1         0.3769
      96    C28     24.216138   20.655846   21.989744 C.3        1 MOL1         0.1018
      97    H46     24.996265   21.251580   22.482634 H          1 MOL1         0.0783
      98    C29     24.856619   19.705798   20.940782 C.3        1 MOL1         0.1043
      99    H47     24.059331   19.321005   20.291149 H          1 MOL1         0.0783
     100    O24     25.514158   18.603919   21.609125 O.3        1 MOL1        -0.3740
     101    C30     25.899534   20.398828   20.035447 C.3        1 MOL1         0.0138
     102    H48     25.394917   21.159897   19.425724 H          1 MOL1         0.0794
     103    H49     26.318015   19.654062   19.345259 H          1 MOL1         0.0794
     104    O25     26.942201   20.998881   20.809402 O.3        1 MOL1        -0.5486
     105    H50     27.335142   20.277213   21.349277 H          1 MOL1         0.3769
     106    C31     21.448802   13.837163   20.891722 C.3        1 MOL1         0.2972
     107    H51     21.119481   12.829893   20.607564 H          1 MOL1         0.0751
     108    O26     20.335853   14.711295   21.172185 O.3        1 MOL1        -0.3740
     109    C32     22.346733   13.776803   22.152804 C.3        1 MOL1         0.1003
     110    H52     23.232968   13.181128   21.896637 H          1 MOL1         0.0783
     111    O27     21.663266   13.159694   23.258102 O.3        1 MOL1        -0.5519
     112    H53     21.636694   12.194254   23.083987 H          1 MOL1         0.3769
     113    C33     22.826270   15.195345   22.543436 C.3        1 MOL1         0.1053
     114    H54     21.948733   15.773388   22.863811 H          1 MOL1         0.0783
     115    O28     23.749951   15.074398   23.631135 O.3        1 MOL1        -0.5519
     116    H55     23.339953   14.409583   24.230422 H          1 MOL1         0.3769
     117    C34     23.475252   15.929004   21.333270 C.3        1 MOL1         0.1018
     118    H56     24.473435   15.513096   21.141820 H          1 MOL1         0.0783
     119    C35     22.627489   15.802644   20.038664 C.3        1 MOL1         0.1043
     120    H57     21.738009   16.437852   20.134079 H          1 MOL1         0.0783
     121    O29     22.239214   14.421797   19.836946 O.3        1 MOL1        -0.3740
     122    C36     23.410973   16.253584   18.788587 C.3        1 MOL1         0.0138
     123    H58     24.284153   15.601532   18.652352 H          1 MOL1         0.0794
     124    H59     23.778936   17.276671   18.942160 H          1 MOL1         0.0794
     125    O30     22.565221   16.206780   17.637590 O.3        1 MOL1        -0.5486
     126    H60     22.216914   15.288650   17.594018 H          1 MOL1         0.3769
     127    N1      21.119663   19.348164   25.604073 N.4        1 MOL1        -0.5937
     128    H1      21.245398   19.308474   26.617108 H          1 MOL1         0.3684
     129    H2      21.691452   20.131085   25.249744 H          1 MOL1         0.3684
     130    H3      21.574211   18.515338   25.201664 H          1 MOL1         0.3684
     131    C1      19.675802   19.474560   25.205813 C.3        1 MOL1         0.1270
     132    H4      19.315609   20.390823   25.683726 H          1 MOL1         0.0960
     133    C2      18.847466   18.304216   25.762504 C.3        1 MOL1        -0.2382
     134    H5      18.900304   18.283008   26.857533 H          1 MOL1         0.1009
     135    H6      19.208518   17.337685   25.391142 H          1 MOL1         0.1009
     136    H7      17.793110   18.407564   25.483676 H          1 MOL1         0.1009
     137    C3      19.489422   19.656611   23.680594 C.3        1 MOL1        -0.1392
     138    H8      18.447274   19.941967   23.490609 H          1 MOL1         0.0998
     139    H9      20.098170   20.510748   23.355370 H          1 MOL1         0.0998
     140    C4      19.839532   18.417085   22.816989 C.3        1 MOL1        -0.1302
     141    H10     19.166134   17.583607   23.055491 H          1 MOL1         0.0998
     142    H11     20.855998   18.068764   23.039952 H          1 MOL1         0.0998
     143    C5      19.726573   18.736023   21.311231 C.3        1 MOL1        -0.2317
     144    H12     18.703700   19.034898   21.047088 H          1 MOL1         0.1009
     145    H13     19.986366   17.856700   20.710441 H          1 MOL1         0.1009
     146    H14     20.406529   19.550167   21.027455 H          1 MOL1         0.1009
@<TRIPOS>BOND
    1     1     2    1
    2     1     3    1
    3     1     4    1
    4     4     5    1
    5     4     6    1
    6     6     7    1
    7     4     8    1
    8     8     9    1
    9     8    10    1
   10    10    11    1
   11     8    12    1
   12    12    13    1
   13    12    14    1
   14    14    15    1
   15     1    16    1
   16    14    16    1
   17    14    17    1
   18    17    18    1
   19    17    19    1
   20    17    20    1
   21    20    21    1
   22    22    23    1
   23    22    24    1
   24    22    25    1
   25    25    26    1
   26    25    27    1
   27    27    28    1
   28    25    29    1
   29    29    30    1
   30    29    31    1
   31    31    32    1
   32     3    33    1
   33    29    33    1
   34    33    34    1
   35    33    35    1
   36    35    36    1
   37    22    37    1
   38    35    37    1
   39    35    38    1
   40    38    39    1
   41    38    40    1
   42    38    41    1
   43    41    42    1
   44    43    44    1
   45    43    45    1
   46    43    46    1
   47    46    47    1
   48    46    48    1
   49    48    49    1
   50    46    50    1
   51    50    51    1
   52    50    52    1
   53    52    53    1
   54    24    54    1
   55    50    54    1
   56    54    55    1
   57    54    56    1
   58    56    57    1
   59    43    58    1
   60    56    58    1
   61    56    59    1
   62    59    60    1
   63    59    61    1
   64    59    62    1
   65    62    63    1
   66    64    65    1
   67    64    66    1
   68    64    67    1
   69    67    68    1
   70    67    69    1
   71    69    70    1
   72    67    71    1
   73    71    72    1
   74    71    73    1
   75    73    74    1
   76    45    75    1
   77    71    75    1
   78    75    76    1
   79    75    77    1
   80    77    78    1
   81    64    79    1
   82    77    79    1
   83    77    80    1
   84    80    81    1
   85    80    82    1
   86    80    83    1
   87    83    84    1
   88    85    86    1
   89    85    87    1
   90    85    88    1
   91    88    89    1
   92    88    90    1
   93    90    91    1
   94    88    92    1
   95    92    93    1
   96    92    94    1
   97    94    95    1
   98    66    96    1
   99    92    96    1
  100    96    97    1
  101    96    98    1
  102    98    99    1
  103    85   100    1
  104    98   100    1
  105    98   101    1
  106   101   102    1
  107   101   103    1
  108   101   104    1
  109   104   105    1
  110   106   107    1
  111    12   108    1
  112   106   108    1
  113   106   109    1
  114   109   110    1
  115   109   111    1
  116   111   112    1
  117   109   113    1
  118   113   114    1
  119   113   115    1
  120   115   116    1
  121    87   117    1
  122   113   117    1
  123   117   118    1
  124   117   119    1
  125   119   120    1
  126   106   121    1
  127   119   121    1
  128   119   122    1
  129   122   123    1
  130   122   124    1
  131   122   125    1
  132   125   126    1
  133   127   128    1
  134   127   129    1
  135   127   130    1
  136   127   131    1
  137   131   132    1
  138   131   133    1
  139   133   134    1
  140   133   135    1
  141   133   136    1
  142   131   137    1
  143   137   138    1
  144   137   139    1
  145   137   140    1
  146   140   141    1
  147   140   142    1
  148   140   143    1
  149   143   144    1
  150   143   145    1
  151   143   146    1
@<TRIPOS>SUBSTRUCTURE
       1 MOL1            1 RESIDUE      1      MOL     
       2 MOL1          146 RESIDUE      1      MOL     
@<SCITEGIC>MOL_PROPERTY
VM2 Rank
SciTegic.value.IntegerValue
4

@<SCITEGIC>MOL_PROPERTY
Conf_Id
SciTegic.value.IntegerValue
24509

@<SCITEGIC>MOL_PROPERTY
Probability
SciTegic.value.DoubleValue
1.11

@<SCITEGIC>MOL_PROPERTY
Sum Probability
SciTegic.value.DoubleValue
4.98

@<SCITEGIC>MOL_PROPERTY
Delta G
SciTegic.value.DoubleValue
0.097

@<SCITEGIC>MOL_PROPERTY
G
SciTegic.value.DoubleValue
525.246

@<SCITEGIC>MOL_PROPERTY
E
SciTegic.value.DoubleValue
332.616

@<SCITEGIC>MOL_PROPERTY
-TS
SciTegic.value.DoubleValue
192.630

@<SCITEGIC>MOL_PROPERTY
U+W
SciTegic.value.DoubleValue
203.845

@<SCITEGIC>MOL_PROPERTY
U
SciTegic.value.DoubleValue
276.864

@<SCITEGIC>MOL_PROPERTY
W
SciTegic.value.DoubleValue
-73.019

@<SCITEGIC>MOL_PROPERTY
W(PB)
SciTegic.value.DoubleValue
-79.258

@<SCITEGIC>MOL_PROPERTY
W(SA)
SciTegic.value.DoubleValue
6.239

@<SCITEGIC>MOL_PROPERTY
Valence
SciTegic.value.DoubleValue
145.344

@<SCITEGIC>MOL_PROPERTY
Coulomb
SciTegic.value.DoubleValue
151.428

@<SCITEGIC>MOL_PROPERTY
VdW
SciTegic.value.DoubleValue
-19.908

@<SCITEGIC>MOL_PROPERTY
VdW6
SciTegic.value.DoubleValue
-168.493

@<SCITEGIC>MOL_PROPERTY
VdW12
SciTegic.value.DoubleValue
148.584

@<SCITEGIC>MOL_PROPERTY
Bond
SciTegic.value.DoubleValue
4.233

@<SCITEGIC>MOL_PROPERTY
Angle
SciTegic.value.DoubleValue
10.586

@<SCITEGIC>MOL_PROPERTY
Pdih
SciTegic.value.DoubleValue
130.524

@<SCITEGIC>MOL_PROPERTY
Idih
SciTegic.value.DoubleValue
0.000

@<SCITEGIC>MOL_PROPERTY
Tether
SciTegic.value.DoubleValue
0.000

@<TRIPOS>MOLECULE
CD_guest-s10_vm2_single.mol2 : vm2 host+ligand conformer 5
         146         151           2
SMALL
USER_CHARGES
 
@<TRIPOS>ATOM
       1    C1      16.208924   15.014918   21.511867 C.3        1 MOL1         0.2972
       2    H1      15.120688   14.879689   21.554333 H          1 MOL1         0.0751
       3    O1      16.571677   16.400337   21.330235 O.3        1 MOL1        -0.3740
       4    C2      16.859932   14.490107   22.814604 C.3        1 MOL1         0.1003
       5    H2      16.653249   13.413827   22.879031 H          1 MOL1         0.0783
       6    O2      16.319923   15.146750   23.969335 O.3        1 MOL1        -0.5519
       7    H3      16.908982   14.872575   24.707903 H          1 MOL1         0.3769
       8    C3      18.390629   14.682467   22.767306 C.3        1 MOL1         0.1053
       9    H4      18.584802   15.759629   22.785644 H          1 MOL1         0.0783
      10    O3      18.996445   14.060058   23.906706 O.3        1 MOL1        -0.5519
      11    H5      19.968585   14.029805   23.733570 H          1 MOL1         0.3769
      12    C4      19.007716   14.107076   21.469194 C.3        1 MOL1         0.1018
      13    H6      19.088546   13.017338   21.577803 H          1 MOL1         0.0783
      14    C5      18.194357   14.459662   20.189560 C.3        1 MOL1         0.1043
      15    H7      18.383556   15.512792   19.943332 H          1 MOL1         0.0783
      16    O4      16.775102   14.262799   20.417938 O.3        1 MOL1        -0.3740
      17    C6      18.592492   13.617137   18.957407 C.3        1 MOL1         0.0138
      18    H8      19.632172   13.843630   18.687844 H          1 MOL1         0.0794
      19    H9      17.963902   13.915080   18.107522 H          1 MOL1         0.0794
      20    O5      18.444468   12.218451   19.218365 O.3        1 MOL1        -0.5486
      21    H10     17.503441   12.082654   19.468596 H          1 MOL1         0.3769
      22    C7      14.927715   20.178867   20.806264 C.3        1 MOL1         0.2972
      23    H11     14.285817   21.026918   20.534631 H          1 MOL1         0.0751
      24    O6      16.229084   20.618644   21.245426 O.3        1 MOL1        -0.3740
      25    C8      14.274829   19.333048   21.931264 C.3        1 MOL1         0.1003
      26    H12     13.304493   18.983345   21.555278 H          1 MOL1         0.0783
      27    O7      14.068813   20.106040   23.121084 O.3        1 MOL1        -0.5519
      28    H13     13.744056   19.458280   23.786469 H          1 MOL1         0.3769
      29    C9      15.133567   18.089764   22.262848 C.3        1 MOL1         0.1053
      30    H14     16.064220   18.437115   22.730862 H          1 MOL1         0.0783
      31    O8      14.419403   17.246750   23.174388 O.3        1 MOL1        -0.5519
      32    H15     15.056558   16.552153   23.476255 H          1 MOL1         0.3769
      33    C10     15.502175   17.298071   20.981467 C.3        1 MOL1         0.1018
      34    H16     14.618379   16.760286   20.612607 H          1 MOL1         0.0783
      35    C11     16.031601   18.214813   19.848686 C.3        1 MOL1         0.1043
      36    H17     17.028918   18.584151   20.119985 H          1 MOL1         0.0783
      37    O9      15.113766   19.319137   19.662591 O.3        1 MOL1        -0.3740
      38    C12     16.136595   17.469066   18.502404 C.3        1 MOL1         0.0138
      39    H18     15.132421   17.168125   18.174915 H          1 MOL1         0.0794
      40    H19     16.730505   16.556019   18.636225 H          1 MOL1         0.0794
      41    O10     16.752132   18.310750   17.526140 O.3        1 MOL1        -0.5486
      42    H20     16.240893   19.150168   17.528594 H          1 MOL1         0.3769
      43    C13     18.470898   24.039455   21.818021 C.3        1 MOL1         0.2972
      44    H21     18.849693   25.053802   21.996896 H          1 MOL1         0.0751
      45    O11     19.525926   23.135088   21.433758 O.3        1 MOL1        -0.3740
      46    C14     17.776254   23.499752   23.092425 C.3        1 MOL1         0.1003
      47    H22     16.933908   24.168614   23.312339 H          1 MOL1         0.0783
      48    O12     18.667963   23.484487   24.215147 O.3        1 MOL1        -0.5519
      49    H23     18.181052   22.983274   24.907090 H          1 MOL1         0.3769
      50    C15     17.206449   22.084094   22.856124 C.3        1 MOL1         0.1053
      51    H24     18.049665   21.392679   22.733303 H          1 MOL1         0.0783
      52    O13     16.416206   21.702030   23.988207 O.3        1 MOL1        -0.5519
      53    H25     15.750911   21.047279   23.663957 H          1 MOL1         0.3769
      54    C16     16.341655   22.017261   21.574342 C.3        1 MOL1         0.1018
      55    H26     15.363290   22.466016   21.793833 H          1 MOL1         0.0783
      56    C17     16.997450   22.737001   20.360082 C.3        1 MOL1         0.1043
      57    H27     17.832656   22.119108   20.004131 H          1 MOL1         0.0783
      58    O14     17.490820   24.041859   20.758438 O.3        1 MOL1        -0.3740
      59    C18     16.034410   22.944684   19.169866 C.3        1 MOL1         0.0138
      60    H28     15.745817   21.965404   18.766122 H          1 MOL1         0.0794
      61    H29     16.568244   23.479874   18.373140 H          1 MOL1         0.0794
      62    O15     14.871475   23.677049   19.566747 O.3        1 MOL1        -0.5486
      63    H30     15.194597   24.530099   19.933401 H          1 MOL1         0.3769
      64    C19     23.603866   22.866584   20.899533 C.3        1 MOL1         0.2972
      65    H31     24.667133   22.993826   20.658720 H          1 MOL1         0.0751
      66    O16     23.288235   21.491566   21.202036 O.3        1 MOL1        -0.3740
      67    C20     23.180561   23.775627   22.083385 C.3        1 MOL1         0.1003
      68    H32     23.317026   24.815649   21.759117 H          1 MOL1         0.0783
      69    O17     23.974628   23.546713   23.253510 O.3        1 MOL1        -0.5519
      70    H33     23.568690   24.115831   23.946319 H          1 MOL1         0.3769
      71    C21     21.682494   23.574438   22.411395 C.3        1 MOL1         0.1053
      72    H34     21.550003   22.552408   22.792437 H          1 MOL1         0.0783
      73    O18     21.283168   24.517570   23.412301 O.3        1 MOL1        -0.5519
      74    H35     20.406615   24.207409   23.751378 H          1 MOL1         0.3769
      75    C22     20.802322   23.733826   21.143063 C.3        1 MOL1         0.1018
      76    H36     20.707177   24.798904   20.892245 H          1 MOL1         0.0783
      77    C23     21.369687   22.985246   19.906796 C.3        1 MOL1         0.1043
      78    H37     21.197282   21.908659   20.031677 H          1 MOL1         0.0783
      79    O19     22.788526   23.256269   19.774114 O.3        1 MOL1        -0.3740
      80    C24     20.681977   23.434147   18.601010 C.3        1 MOL1         0.0138
      81    H38     20.912774   24.491530   18.414307 H          1 MOL1         0.0794
      82    H39     19.593443   23.345130   18.715195 H          1 MOL1         0.0794
      83    O20     21.125488   22.623308   17.511723 O.3        1 MOL1        -0.5486
      84    H40     22.108248   22.641910   17.540206 H          1 MOL1         0.3769
      85    C25     24.799286   17.793823   22.154520 C.3        1 MOL1         0.2972
      86    H41     25.398768   16.928208   22.462994 H          1 MOL1         0.0751
      87    O21     23.578915   17.388527   21.498957 O.3        1 MOL1        -0.3740
      88    C26     24.434656   18.659552   23.386884 C.3        1 MOL1         0.1003
      89    H42     25.376394   18.982185   23.849164 H          1 MOL1         0.0783
      90    O22     23.677933   17.892150   24.339473 O.3        1 MOL1        -0.5519
      91    H43     23.907697   16.943487   24.192347 H          1 MOL1         0.3769
      92    C27     23.649324   19.924437   22.958119 C.3        1 MOL1         0.1053
      93    H44     22.666208   19.604353   22.597626 H          1 MOL1         0.0783
      94    O23     23.485879   20.799315   24.080108 O.3        1 MOL1        -0.5519
      95    H45     23.530015   21.721706   23.732520 H          1 MOL1         0.3769
      96    C28     24.326789   20.685062   21.790782 C.3        1 MOL1         0.1018
      97    H46     25.151668   21.292790   22.186656 H          1 MOL1         0.0783
      98    C29     24.841491   19.738923   20.669611 C.3        1 MOL1         0.1043
      99    H47     23.973616   19.369746   20.107357 H          1 MOL1         0.0783
     100    O24     25.555966   18.617954   21.243463 O.3        1 MOL1        -0.3740
     101    C30     25.783772   20.435682   19.662962 C.3        1 MOL1         0.0138
     102    H48     25.223655   21.213973   19.128020 H          1 MOL1         0.0794
     103    H49     26.110854   19.698790   18.917195 H          1 MOL1         0.0794
     104    O25     26.915558   21.008807   20.323761 O.3        1 MOL1        -0.5486
     105    H50     27.356689   20.272713   20.803608 H          1 MOL1         0.3769
     106    C31     21.388884   13.890915   20.937090 C.3        1 MOL1         0.2972
     107    H51     21.043108   12.887995   20.655228 H          1 MOL1         0.0751
     108    O26     20.296931   14.736361   21.346875 O.3        1 MOL1        -0.3740
     109    C32     22.408008   13.819108   22.104180 C.3        1 MOL1         0.1003
     110    H52     23.257951   13.213547   21.762675 H          1 MOL1         0.0783
     111    O27     21.826471   13.213440   23.272482 O.3        1 MOL1        -0.5519
     112    H53     21.711178   12.257832   23.083528 H          1 MOL1         0.3769
     113    C33     22.938216   15.231021   22.455700 C.3        1 MOL1         0.1053
     114    H54     22.103442   15.802512   22.880256 H          1 MOL1         0.0783
     115    O28     23.975192   15.096907   23.433914 O.3        1 MOL1        -0.5519
     116    H55     23.630396   14.430165   24.070753 H          1 MOL1         0.3769
     117    C34     23.449855   15.984538   21.193517 C.3        1 MOL1         0.1018
     118    H56     24.409843   15.558967   20.872065 H          1 MOL1         0.0783
     119    C35     22.446565   15.896142   20.013749 C.3        1 MOL1         0.1043
     120    H57     21.571956   16.519893   20.241336 H          1 MOL1         0.0783
     121    O29     22.049859   14.517018   19.818692 O.3        1 MOL1        -0.3740
     122    C36     23.065383   16.392027   18.690444 C.3        1 MOL1         0.0138
     123    H58     23.908810   15.743260   18.418619 H          1 MOL1         0.0794
     124    H59     23.457143   17.407922   18.830873 H          1 MOL1         0.0794
     125    O30     22.077262   16.389526   17.658619 O.3        1 MOL1        -0.5486
     126    H60     21.690699   15.486078   17.655246 H          1 MOL1         0.3769
     127    N1      21.257654   19.234655   25.275011 N.4        1 MOL1        -0.5937
     128    H1      21.177404   18.392548   25.848511 H          1 MOL1         0.3684
     129    H2      21.242313   20.047225   25.895813 H          1 MOL1         0.3684
     130    H3      22.202445   19.213334   24.846927 H          1 MOL1         0.3684
     131    C1      20.179052   19.311537   24.229563 C.3        1 MOL1         0.1270
     132    H4      20.356951   20.237973   23.675473 H          1 MOL1         0.0960
     133    C2      18.796424   19.391155   24.900110 C.3        1 MOL1        -0.2382
     134    H5      18.599230   18.500307   25.509010 H          1 MOL1         0.1009
     135    H6      17.994228   19.474119   24.159876 H          1 MOL1         0.1009
     136    H7      18.732097   20.271269   25.551517 H          1 MOL1         0.1009
     137    C3      20.256896   18.124479   23.241529 C.3        1 MOL1        -0.1392
     138    H8      21.302352   17.941969   22.972931 H          1 MOL1         0.0998
     139    H9      19.921117   17.213484   23.751467 H          1 MOL1         0.0998
     140    C4      19.454286   18.326278   21.930936 C.3        1 MOL1        -0.1302
     141    H10     18.391425   18.483022   22.152293 H          1 MOL1         0.0998
     142    H11     19.505669   17.404990   21.335386 H          1 MOL1         0.0998
     143    C5      19.987833   19.495575   21.073518 C.3        1 MOL1        -0.2317
     144    H12     19.920445   20.451187   21.606180 H          1 MOL1         0.1009
     145    H13     19.406855   19.591290   20.146926 H          1 MOL1         0.1009
     146    H14     21.037287   19.333329   20.794024 H          1 MOL1         0.1009
@<TRIPOS>BOND
    1     1     2    1
    2     1     3    1
    3     1     4    1
    4     4     5    1
    5     4     6    1
    6     6     7    1
    7     4     8    1
    8     8     9    1
    9     8    10    1
   10    10    11    1
   11     8    12    1
   12    12    13    1
   13    12    14    1
   14    14    15    1
   15     1    16    1
   16    14    16    1
   17    14    17    1
   18    17    18    1
   19    17    19    1
   20    17    20    1
   21    20    21    1
   22    22    23    1
   23    22    24    1
   24    22    25    1
   25    25    26    1
   26    25    27    1
   27    27    28    1
   28    25    29    1
   29    29    30    1
   30    29    31    1
   31    31    32    1
   32     3    33    1
   33    29    33    1
   34    33    34    1
   35    33    35    1
   36    35    36    1
   37    22    37    1
   38    35    37    1
   39    35    38    1
   40    38    39    1
   41    38    40    1
   42    38    41    1
   43    41    42    1
   44    43    44    1
   45    43    45    1
   46    43    46    1
   47    46    47    1
   48    46    48    1
   49    48    49    1
   50    46    50    1
   51    50    51    1
   52    50    52    1
   53    52    53    1
   54    24    54    1
   55    50    54    1
   56    54    55    1
   57    54    56    1
   58    56    57    1
   59    43    58    1
   60    56    58    1
   61    56    59    1
   62    59    60    1
   63    59    61    1
   64    59    62    1
   65    62    63    1
   66    64    65    1
   67    64    66    1
   68    64    67    1
   69    67    68    1
   70    67    69    1
   71    69    70    1
   72    67    71    1
   73    71    72    1
   74    71    73    1
   75    73    74    1
   76    45    75    1
   77    71    75    1
   78    75    76    1
   79    75    77    1
   80    77    78    1
   81    64    79    1
   82    77    79    1
   83    77    80    1
   84    80    81    1
   85    80    82    1
   86    80    83    1
   87    83    84    1
   88    85    86    1
   89    85    87    1
   90    85    88    1
   91    88    89    1
   92    88    90    1
   93    90    91    1
   94    88    92    1
   95    92    93    1
   96    92    94    1
   97    94    95    1
   98    66    96    1
   99    92    96    1
  100    96    97    1
  101    96    98    1
  102    98    99    1
  103    85   100    1
  104    98   100    1
  105    98   101    1
  106   101   102    1
  107   101   103    1
  108   101   104    1
  109   104   105    1
  110   106   107    1
  111    12   108    1
  112   106   108    1
  113   106   109    1
  114   109   110    1
  115   109   111    1
  116   111   112    1
  117   109   113    1
  118   113   114    1
  119   113   115    1
  120   115   116    1
  121    87   117    1
  122   113   117    1
  123   117   118    1
  124   117   119    1
  125   119   120    1
  126   106   121    1
  127   119   121    1
  128   119   122    1
  129   122   123    1
  130   122   124    1
  131   122   125    1
  132   125   126    1
  133   127   128    1
  134   127   129    1
  135   127   130    1
  136   127   131    1
  137   131   132    1
  138   131   133    1
  139   133   134    1
  140   133   135    1
  141   133   136    1
  142   131   137    1
  143   137   138    1
  144   137   139    1
  145   137   140    1
  146   140   141    1
  147   140   142    1
  148   140   143    1
  149   143   144    1
  150   143   145    1
  151   143   146    1
@<TRIPOS>SUBSTRUCTURE
       1 MOL1            1 RESIDUE      1      MOL     
       2 MOL1          146 RESIDUE      1      MOL     
@<SCITEGIC>MOL_PROPERTY
VM2 Rank
SciTegic.value.IntegerValue
5

@<SCITEGIC>MOL_PROPERTY
Conf_Id
SciTegic.value.IntegerValue
17140

@<SCITEGIC>MOL_PROPERTY
Probability
SciTegic.value.DoubleValue
1.10

@<SCITEGIC>MOL_PROPERTY
Sum Probability
SciTegic.value.DoubleValue
6.08

@<SCITEGIC>MOL_PROPERTY
Delta G
SciTegic.value.DoubleValue
0.102

@<SCITEGIC>MOL_PROPERTY
G
SciTegic.value.DoubleValue
525.251

@<SCITEGIC>MOL_PROPERTY
E
SciTegic.value.DoubleValue
332.868

@<SCITEGIC>MOL_PROPERTY
-TS
SciTegic.value.DoubleValue
192.383

@<SCITEGIC>MOL_PROPERTY
U+W
SciTegic.value.DoubleValue
204.097

@<SCITEGIC>MOL_PROPERTY
U
SciTegic.value.DoubleValue
278.269

@<SCITEGIC>MOL_PROPERTY
W
SciTegic.value.DoubleValue
-74.173

@<SCITEGIC>MOL_PROPERTY
W(PB)
SciTegic.value.DoubleValue
-80.258

@<SCITEGIC>MOL_PROPERTY
W(SA)
SciTegic.value.DoubleValue
6.085

@<SCITEGIC>MOL_PROPERTY
Valence
SciTegic.value.DoubleValue
145.213

@<SCITEGIC>MOL_PROPERTY
Coulomb
SciTegic.value.DoubleValue
156.173

@<SCITEGIC>MOL_PROPERTY
VdW
SciTegic.value.DoubleValue
-23.117

@<SCITEGIC>MOL_PROPERTY
VdW6
SciTegic.value.DoubleValue
-171.687

@<SCITEGIC>MOL_PROPERTY
VdW12
SciTegic.value.DoubleValue
148.570

@<SCITEGIC>MOL_PROPERTY
Bond
SciTegic.value.DoubleValue
4.223

@<SCITEGIC>MOL_PROPERTY
Angle
SciTegic.value.DoubleValue
10.251

@<SCITEGIC>MOL_PROPERTY
Pdih
SciTegic.value.DoubleValue
130.740

@<SCITEGIC>MOL_PROPERTY
Idih
SciTegic.value.DoubleValue
0.000

@<SCITEGIC>MOL_PROPERTY
Tether
SciTegic.value.DoubleValue
0.000

@<TRIPOS>MOLECULE
CD_guest-s10_vm2_single.mol2 : vm2 host+ligand conformer 6
         146         151           2
SMALL
USER_CHARGES
 
@<TRIPOS>ATOM
       1    C1      16.222216   15.049123   21.486249 C.3        1 MOL1         0.2972
       2    H1      15.133177   14.919489   21.525508 H          1 MOL1         0.0751
       3    O1      16.592371   16.430451   21.283661 O.3        1 MOL1        -0.3740
       4    C2      16.865601   14.541314   22.799776 C.3        1 MOL1         0.1003
       5    H2      16.655082   13.466757   22.878833 H          1 MOL1         0.0783
       6    O2      16.324030   15.215841   23.943380 O.3        1 MOL1        -0.5519
       7    H3      16.909759   14.950207   24.687676 H          1 MOL1         0.3769
       8    C3      18.397111   14.727734   22.755265 C.3        1 MOL1         0.1053
       9    H4      18.593650   15.804473   22.758351 H          1 MOL1         0.0783
      10    O3      18.998646   14.120764   23.905333 O.3        1 MOL1        -0.5519
      11    H5      19.970001   14.078318   23.731082 H          1 MOL1         0.3769
      12    C4      19.018220   14.132245   21.468278 C.3        1 MOL1         0.1018
      13    H6      19.101102   13.044660   21.595378 H          1 MOL1         0.0783
      14    C5      18.208554   14.462398   20.180332 C.3        1 MOL1         0.1043
      15    H7      18.399863   15.510336   19.915256 H          1 MOL1         0.0783
      16    O4      16.789410   14.273051   20.409965 O.3        1 MOL1        -0.3740
      17    C6      18.605561   13.596448   18.964073 C.3        1 MOL1         0.0138
      18    H8      19.643579   13.820608   18.686414 H          1 MOL1         0.0794
      19    H9      17.972969   13.875499   18.110676 H          1 MOL1         0.0794
      20    O5      18.462679   12.202736   19.252970 O.3        1 MOL1        -0.5486
      21    H10     17.521672   12.068538   19.504218 H          1 MOL1         0.3769
      22    C7      14.971867   20.214654   20.732795 C.3        1 MOL1         0.2972
      23    H11     14.339757   21.068299   20.455808 H          1 MOL1         0.0751
      24    O6      16.272847   20.644291   21.183259 O.3        1 MOL1        -0.3740
      25    C8      14.300115   19.372808   21.849764 C.3        1 MOL1         0.1003
      26    H12     13.334606   19.024532   21.460221 H          1 MOL1         0.0783
      27    O7      14.078204   20.148538   23.034818 O.3        1 MOL1        -0.5519
      28    H13     13.743553   19.501955   23.696585 H          1 MOL1         0.3769
      29    C9      15.150433   18.128176   22.196557 C.3        1 MOL1         0.1053
      30    H14     16.079920   18.474559   22.667633 H          1 MOL1         0.0783
      31    O8      14.426292   17.296944   23.111237 O.3        1 MOL1        -0.5519
      32    H15     15.059282   16.604122   23.425488 H          1 MOL1         0.3769
      33    C10     15.522963   17.325129   20.923443 C.3        1 MOL1         0.1018
      34    H16     14.640089   16.782544   20.559816 H          1 MOL1         0.0783
      35    C11     16.056006   18.233671   19.783328 C.3        1 MOL1         0.1043
      36    H17     17.054661   18.595926   20.059297 H          1 MOL1         0.0783
      37    O9      15.161954   19.356598   19.589062 O.3        1 MOL1        -0.3740
      38    C12     16.174586   17.494675   18.431637 C.3        1 MOL1         0.0138
      39    H18     16.857519   16.643007   18.544711 H          1 MOL1         0.0794
      40    H19     16.617883   18.177047   17.694199 H          1 MOL1         0.0794
      41    O10     14.895239   17.041233   17.979960 O.3        1 MOL1        -0.5486
      42    H20     14.311685   17.832546   17.978228 H          1 MOL1         0.3769
      43    C13     18.515769   24.048590   21.836073 C.3        1 MOL1         0.2972
      44    H21     18.897479   25.057816   22.036482 H          1 MOL1         0.0751
      45    O11     19.568822   23.148588   21.436572 O.3        1 MOL1        -0.3740
      46    C14     17.815405   23.485327   23.096947 C.3        1 MOL1         0.1003
      47    H22     16.974337   24.152276   23.327342 H          1 MOL1         0.0783
      48    O12     18.703218   23.445126   24.222183 O.3        1 MOL1        -0.5519
      49    H23     18.211809   22.933014   24.902795 H          1 MOL1         0.3769
      50    C15     17.241886   22.076342   22.830852 C.3        1 MOL1         0.1053
      51    H24     18.083031   21.383807   22.700380 H          1 MOL1         0.0783
      52    O13     16.444376   21.677334   23.951827 O.3        1 MOL1        -0.5519
      53    H25     15.769359   21.041774   23.610251 H          1 MOL1         0.3769
      54    C16     16.383518   22.035761   21.543324 C.3        1 MOL1         0.1018
      55    H26     15.403854   22.479501   21.767321 H          1 MOL1         0.0783
      56    C17     17.043784   22.780945   20.346863 C.3        1 MOL1         0.1043
      57    H27     17.878890   22.169525   19.979868 H          1 MOL1         0.0783
      58    O14     17.538619   24.075891   20.774258 O.3        1 MOL1        -0.3740
      59    C18     16.084493   23.015821   19.158600 C.3        1 MOL1         0.0138
      60    H28     15.795754   22.045893   18.732662 H          1 MOL1         0.0794
      61    H29     16.621414   23.567470   18.375289 H          1 MOL1         0.0794
      62    O15     14.921479   23.741215   19.567885 O.3        1 MOL1        -0.5486
      63    H30     15.244744   24.585739   19.953689 H          1 MOL1         0.3769
      64    C19     23.651181   22.880461   20.938113 C.3        1 MOL1         0.2972
      65    H31     24.716637   23.007870   20.707246 H          1 MOL1         0.0751
      66    O16     23.331382   21.504400   21.231376 O.3        1 MOL1        -0.3740
      67    C20     23.218367   23.783322   22.123165 C.3        1 MOL1         0.1003
      68    H32     23.357871   24.825095   21.805888 H          1 MOL1         0.0783
      69    O17     24.002578   23.547282   23.298479 O.3        1 MOL1        -0.5519
      70    H33     23.590534   24.111847   23.991402 H          1 MOL1         0.3769
      71    C21     21.717536   23.580474   22.437333 C.3        1 MOL1         0.1053
      72    H34     21.581813   22.555933   22.810424 H          1 MOL1         0.0783
      73    O18     21.310068   24.516551   23.441569 O.3        1 MOL1        -0.5519
      74    H35     20.435302   24.198281   23.777680 H          1 MOL1         0.3769
      75    C22     20.848336   23.748400   21.162315 C.3        1 MOL1         0.1018
      76    H36     20.755682   24.814963   20.916911 H          1 MOL1         0.0783
      77    C23     21.425980   23.006607   19.926707 C.3        1 MOL1         0.1043
      78    H37     21.251793   21.929537   20.044185 H          1 MOL1         0.0783
      79    O19     22.846066   23.276847   19.807676 O.3        1 MOL1        -0.3740
      80    C24     20.749646   23.462755   18.617494 C.3        1 MOL1         0.0138
      81    H38     20.988945   24.518857   18.434225 H          1 MOL1         0.0794
      82    H39     19.659834   23.381240   18.724726 H          1 MOL1         0.0794
      83    O20     21.193945   22.650525   17.529497 O.3        1 MOL1        -0.5486
      84    H40     22.176672   22.665667   17.560986 H          1 MOL1         0.3769
      85    C25     24.828091   17.795931   22.158902 C.3        1 MOL1         0.2972
      86    H41     25.423308   16.925002   22.460539 H          1 MOL1         0.0751
      87    O21     23.605297   17.402022   21.500761 O.3        1 MOL1        -0.3740
      88    C26     24.468161   18.654513   23.397622 C.3        1 MOL1         0.1003
      89    H42     25.411577   18.970395   23.861142 H          1 MOL1         0.0783
      90    O22     23.709388   17.883623   24.345691 O.3        1 MOL1        -0.5519
      91    H43     23.936721   16.935265   24.193029 H          1 MOL1         0.3769
      92    C27     23.687260   19.925175   22.977953 C.3        1 MOL1         0.1053
      93    H44     22.702904   19.611003   22.615688 H          1 MOL1         0.0783
      94    O23     23.527138   20.792821   24.105983 O.3        1 MOL1        -0.5519
      95    H45     23.565770   21.717466   23.763687 H          1 MOL1         0.3769
      96    C28     24.367324   20.691476   21.815765 C.3        1 MOL1         0.1018
      97    H46     25.193441   21.294591   22.216112 H          1 MOL1         0.0783
      98    C29     24.880005   19.751673   20.688290 C.3        1 MOL1         0.1043
      99    H47     24.011499   19.390374   20.121945 H          1 MOL1         0.0783
     100    O24     25.588927   18.623225   21.254227 O.3        1 MOL1        -0.3740
     101    C30     25.826531   20.452354   19.688366 C.3        1 MOL1         0.0138
     102    H48     25.270408   21.237212   19.158871 H          1 MOL1         0.0794
     103    H49     26.151502   19.719993   18.937232 H          1 MOL1         0.0794
     104    O25     26.959835   21.015469   20.355146 O.3        1 MOL1        -0.5486
     105    H50     27.397293   20.273739   20.829650 H          1 MOL1         0.3769
     106    C31     21.395781   13.916892   20.924292 C.3        1 MOL1         0.2972
     107    H51     21.047036   12.916680   20.636424 H          1 MOL1         0.0751
     108    O26     20.306540   14.761917   21.341157 O.3        1 MOL1        -0.3740
     109    C32     22.415824   13.834765   22.089930 C.3        1 MOL1         0.1003
     110    H52     23.261397   13.224825   21.745404 H          1 MOL1         0.0783
     111    O27     21.830969   13.229021   23.256715 O.3        1 MOL1        -0.5519
     112    H53     21.705608   12.275606   23.063373 H          1 MOL1         0.3769
     113    C33     22.955731   15.241674   22.447032 C.3        1 MOL1         0.1053
     114    H54     22.125834   15.815062   22.878472 H          1 MOL1         0.0783
     115    O28     23.995627   15.095356   23.420380 O.3        1 MOL1        -0.5519
     116    H55     23.649105   14.427205   24.054804 H          1 MOL1         0.3769
     117    C34     23.466266   16.000653   21.187469 C.3        1 MOL1         0.1018
     118    H56     24.421815   15.571430   20.857790 H          1 MOL1         0.0783
     119    C35     22.455284   15.926042   20.013572 C.3        1 MOL1         0.1043
     120    H57     21.583672   16.549088   20.253882 H          1 MOL1         0.0783
     121    O29     22.055057   14.549510   19.808600 O.3        1 MOL1        -0.3740
     122    C36     23.063389   16.434320   18.690098 C.3        1 MOL1         0.0138
     123    H58     23.901098   15.785035   18.402290 H          1 MOL1         0.0794
     124    H59     23.461001   17.446835   18.838191 H          1 MOL1         0.0794
     125    O30     22.064216   16.448182   17.668794 O.3        1 MOL1        -0.5486
     126    H60     21.679120   15.544216   17.654069 H          1 MOL1         0.3769
     127    N1      21.295360   19.225452   25.293656 N.4        1 MOL1        -0.5937
     128    H1      21.211903   18.377982   25.858748 H          1 MOL1         0.3684
     129    H2      21.284924   20.031740   25.922691 H          1 MOL1         0.3684
     130    H3      22.239369   19.203862   24.863869 H          1 MOL1         0.3684
     131    C1      20.215454   19.318171   24.250860 C.3        1 MOL1         0.1270
     132    H4      20.396962   20.249340   23.706007 H          1 MOL1         0.0960
     133    C2      18.834513   19.397791   24.924663 C.3        1 MOL1        -0.2382
     134    H5      18.774411   20.273487   25.582323 H          1 MOL1         0.1009
     135    H6      18.635546   18.503325   25.527658 H          1 MOL1         0.1009
     136    H7      18.031229   19.488179   24.186561 H          1 MOL1         0.1009
     137    C3      20.285109   18.140740   23.250693 C.3        1 MOL1        -0.1392
     138    H8      21.329667   17.951272   22.983286 H          1 MOL1         0.0998
     139    H9      19.939469   17.227825   23.750487 H          1 MOL1         0.0998
     140    C4      19.488174   18.364134   21.939888 C.3        1 MOL1        -0.1302
     141    H10     18.427220   18.536732   22.159684 H          1 MOL1         0.0998
     142    H11     19.526160   17.446151   21.338189 H          1 MOL1         0.0998
     143    C5      20.043979   19.530492   21.092669 C.3        1 MOL1        -0.2317
     144    H12     20.002984   20.480895   21.637183 H          1 MOL1         0.1009
     145    H13     19.460331   19.651773   20.171137 H          1 MOL1         0.1009
     146    H14     21.087899   19.347007   20.805515 H          1 MOL1         0.1009
@<TRIPOS>BOND
    1     1     2    1
    2     1     3    1
    3     1     4    1
    4     4     5    1
    5     4     6    1
    6     6     7    1
    7     4     8    1
    8     8     9    1
    9     8    10    1
   10    10    11    1
   11     8    12    1
   12    12    13    1
   13    12    14    1
   14    14    15    1
   15     1    16    1
   16    14    16    1
   17    14    17    1
   18    17    18    1
   19    17    19    1
   20    17    20    1
   21    20    21    1
   22    22    23    1
   23    22    24    1
   24    22    25    1
   25    25    26    1
   26    25    27    1
   27    27    28    1
   28    25    29    1
   29    29    30    1
   30    29    31    1
   31    31    32    1
   32     3    33    1
   33    29    33    1
   34    33    34    1
   35    33    35    1
   36    35    36    1
   37    22    37    1
   38    35    37    1
   39    35    38    1
   40    38    39    1
   41    38    40    1
   42    38    41    1
   43    41    42    1
   44    43    44    1
   45    43    45    1
   46    43    46    1
   47    46    47    1
   48    46    48    1
   49    48    49    1
   50    46    50    1
   51    50    51    1
   52    50    52    1
   53    52    53    1
   54    24    54    1
   55    50    54    1
   56    54    55    1
   57    54    56    1
   58    56    57    1
   59    43    58    1
   60    56    58    1
   61    56    59    1
   62    59    60    1
   63    59    61    1
   64    59    62    1
   65    62    63    1
   66    64    65    1
   67    64    66    1
   68    64    67    1
   69    67    68    1
   70    67    69    1
   71    69    70    1
   72    67    71    1
   73    71    72    1
   74    71    73    1
   75    73    74    1
   76    45    75    1
   77    71    75    1
   78    75    76    1
   79    75    77    1
   80    77    78    1
   81    64    79    1
   82    77    79    1
   83    77    80    1
   84    80    81    1
   85    80    82    1
   86    80    83    1
   87    83    84    1
   88    85    86    1
   89    85    87    1
   90    85    88    1
   91    88    89    1
   92    88    90    1
   93    90    91    1
   94    88    92    1
   95    92    93    1
   96    92    94    1
   97    94    95    1
   98    66    96    1
   99    92    96    1
  100    96    97    1
  101    96    98    1
  102    98    99    1
  103    85   100    1
  104    98   100    1
  105    98   101    1
  106   101   102    1
  107   101   103    1
  108   101   104    1
  109   104   105    1
  110   106   107    1
  111    12   108    1
  112   106   108    1
  113   106   109    1
  114   109   110    1
  115   109   111    1
  116   111   112    1
  117   109   113    1
  118   113   114    1
  119   113   115    1
  120   115   116    1
  121    87   117    1
  122   113   117    1
  123   117   118    1
  124   117   119    1
  125   119   120    1
  126   106   121    1
  127   119   121    1
  128   119   122    1
  129   122   123    1
  130   122   124    1
  131   122   125    1
  132   125   126    1
  133   127   128    1
  134   127   129    1
  135   127   130    1
  136   127   131    1
  137   131   132    1
  138   131   133    1
  139   133   134    1
  140   133   135    1
  141   133   136    1
  142   131   137    1
  143   137   138    1
  144   137   139    1
  145   137   140    1
  146   140   141    1
  147   140   142    1
  148   140   143    1
  149   143   144    1
  150   143   145    1
  151   143   146    1
@<TRIPOS>SUBSTRUCTURE
       1 MOL1            1 RESIDUE      1      MOL     
       2 MOL1          146 RESIDUE      1      MOL     
@<SCITEGIC>MOL_PROPERTY
VM2 Rank
SciTegic.value.IntegerValue
6

@<SCITEGIC>MOL_PROPERTY
Conf_Id
SciTegic.value.IntegerValue
24645

@<SCITEGIC>MOL_PROPERTY
Probability
SciTegic.value.DoubleValue
1.00

@<SCITEGIC>MOL_PROPERTY
Sum Probability
SciTegic.value.DoubleValue
7.08

@<SCITEGIC>MOL_PROPERTY
Delta G
SciTegic.value.DoubleValue
0.156

@<SCITEGIC>MOL_PROPERTY
G
SciTegic.value.DoubleValue
525.305

@<SCITEGIC>MOL_PROPERTY
E
SciTegic.value.DoubleValue
332.844

@<SCITEGIC>MOL_PROPERTY
-TS
SciTegic.value.DoubleValue
192.461

@<SCITEGIC>MOL_PROPERTY
U+W
SciTegic.value.DoubleValue
204.073

@<SCITEGIC>MOL_PROPERTY
U
SciTegic.value.DoubleValue
278.473

@<SCITEGIC>MOL_PROPERTY
W
SciTegic.value.DoubleValue
-74.399

@<SCITEGIC>MOL_PROPERTY
W(PB)
SciTegic.value.DoubleValue
-80.502

@<SCITEGIC>MOL_PROPERTY
W(SA)
SciTegic.value.DoubleValue
6.102

@<SCITEGIC>MOL_PROPERTY
Valence
SciTegic.value.DoubleValue
145.012

@<SCITEGIC>MOL_PROPERTY
Coulomb
SciTegic.value.DoubleValue
156.157

@<SCITEGIC>MOL_PROPERTY
VdW
SciTegic.value.DoubleValue
-22.697

@<SCITEGIC>MOL_PROPERTY
VdW6
SciTegic.value.DoubleValue
-172.025

@<SCITEGIC>MOL_PROPERTY
VdW12
SciTegic.value.DoubleValue
149.328

@<SCITEGIC>MOL_PROPERTY
Bond
SciTegic.value.DoubleValue
4.260

@<SCITEGIC>MOL_PROPERTY
Angle
SciTegic.value.DoubleValue
10.376

@<SCITEGIC>MOL_PROPERTY
Pdih
SciTegic.value.DoubleValue
130.375

@<SCITEGIC>MOL_PROPERTY
Idih
SciTegic.value.DoubleValue
0.000

@<SCITEGIC>MOL_PROPERTY
Tether
SciTegic.value.DoubleValue
0.000

@<TRIPOS>MOLECULE
CD_guest-s10_vm2_single.mol2 : vm2 host+ligand conformer 7
         146         151           2
SMALL
USER_CHARGES
 
@<TRIPOS>ATOM
       1    C1      16.201395   14.990351   21.543860 C.3        1 MOL1         0.2972
       2    H1      15.112686   14.859715   21.588551 H          1 MOL1         0.0751
       3    O1      16.569274   16.372121   21.345229 O.3        1 MOL1        -0.3740
       4    C2      16.851388   14.478581   22.852275 C.3        1 MOL1         0.1003
       5    H2      16.641503   13.403737   22.929137 H          1 MOL1         0.0783
       6    O2      16.314016   15.150013   23.999689 O.3        1 MOL1        -0.5519
       7    H3      16.902550   14.882378   24.741070 H          1 MOL1         0.3769
       8    C3      18.382601   14.665779   22.802022 C.3        1 MOL1         0.1053
       9    H4      18.579986   15.742502   22.808292 H          1 MOL1         0.0783
      10    O3      18.987217   14.054453   23.948042 O.3        1 MOL1        -0.5519
      11    H5      19.959087   14.018692   23.774430 H          1 MOL1         0.3769
      12    C4      18.997510   14.074199   21.510138 C.3        1 MOL1         0.1018
      13    H6      19.077494   12.985760   21.631649 H          1 MOL1         0.0783
      14    C5      18.183777   14.412480   20.226854 C.3        1 MOL1         0.1043
      15    H7      18.375916   15.461776   19.966943 H          1 MOL1         0.0783
      16    O4      16.764126   14.222951   20.458843 O.3        1 MOL1        -0.3740
      17    C6      18.578351   13.553079   19.005251 C.3        1 MOL1         0.0138
      18    H8      19.618384   13.773207   18.731774 H          1 MOL1         0.0794
      19    H9      17.949714   13.841794   18.152222 H          1 MOL1         0.0794
      20    O5      18.426747   12.158281   19.284316 O.3        1 MOL1        -0.5486
      21    H10     17.485590   12.028276   19.537138 H          1 MOL1         0.3769
      22    C7      14.935849   20.150181   20.782167 C.3        1 MOL1         0.2972
      23    H11     14.295629   20.996547   20.501479 H          1 MOL1         0.0751
      24    O6      16.238242   20.592018   21.215893 O.3        1 MOL1        -0.3740
      25    C8      14.281488   19.318225   21.916661 C.3        1 MOL1         0.1003
      26    H12     13.309409   18.968203   21.545511 H          1 MOL1         0.0783
      27    O7      14.079937   20.104331   23.098707 O.3        1 MOL1        -0.5519
      28    H13     13.752902   19.464938   23.771011 H          1 MOL1         0.3769
      29    C9      15.135945   18.075271   22.260445 C.3        1 MOL1         0.1053
      30    H14     16.067474   18.424165   22.725539 H          1 MOL1         0.0783
      31    O8      14.418532   17.243740   23.179924 O.3        1 MOL1        -0.5519
      32    H15     15.053707   16.551107   23.490338 H          1 MOL1         0.3769
      33    C10     15.502826   17.269784   20.987107 C.3        1 MOL1         0.1018
      34    H16     14.617697   16.731282   20.622518 H          1 MOL1         0.0783
      35    C11     16.036211   18.174186   19.846391 C.3        1 MOL1         0.1043
      36    H17     17.033504   18.544415   20.116463 H          1 MOL1         0.0783
      37    O9      15.120448   19.277989   19.647798 O.3        1 MOL1        -0.3740
      38    C12     16.143663   17.416039   18.507302 C.3        1 MOL1         0.0138
      39    H18     15.139957   17.113565   18.179781 H          1 MOL1         0.0794
      40    H19     16.735935   16.503443   18.650974 H          1 MOL1         0.0794
      41    O10     16.763169   18.248405   17.525409 O.3        1 MOL1        -0.5486
      42    H20     16.250247   19.086762   17.516359 H          1 MOL1         0.3769
      43    C13     18.487804   24.013569   21.745784 C.3        1 MOL1         0.2972
      44    H21     18.868225   25.029311   21.912898 H          1 MOL1         0.0751
      45    O11     19.540667   23.105296   21.362233 O.3        1 MOL1        -0.3740
      46    C14     17.799234   23.486346   23.029139 C.3        1 MOL1         0.1003
      47    H22     16.959560   24.159168   23.247199 H          1 MOL1         0.0783
      48    O12     18.695228   23.478580   24.148417 O.3        1 MOL1        -0.5519
      49    H23     18.209551   22.984910   24.846629 H          1 MOL1         0.3769
      50    C15     17.224125   22.070218   22.808992 C.3        1 MOL1         0.1053
      51    H24     18.064759   21.375162   22.689047 H          1 MOL1         0.0783
      52    O13     16.437635   21.701277   23.948089 O.3        1 MOL1        -0.5519
      53    H25     15.768714   21.045937   23.632655 H          1 MOL1         0.3769
      54    C16     16.352668   21.993224   21.532383 C.3        1 MOL1         0.1018
      55    H26     15.375515   22.443840   21.753470 H          1 MOL1         0.0783
      56    C17     17.001797   22.702778   20.308811 C.3        1 MOL1         0.1043
      57    H27     17.834427   22.081812   19.952744 H          1 MOL1         0.0783
      58    O14     17.498601   24.009206   20.694833 O.3        1 MOL1        -0.3740
      59    C18     16.032178   22.903621   19.122724 C.3        1 MOL1         0.0138
      60    H28     15.742117   21.922120   18.725515 H          1 MOL1         0.0794
      61    H29     16.561526   23.435349   18.320649 H          1 MOL1         0.0794
      62    O15     14.870795   23.637269   19.521768 O.3        1 MOL1        -0.5486
      63    H30     15.195415   24.493306   19.880094 H          1 MOL1         0.3769
      64    C19     23.618926   22.816033   20.845780 C.3        1 MOL1         0.2972
      65    H31     24.684539   22.933274   20.610285 H          1 MOL1         0.0751
      66    O16     23.293443   21.447153   21.164919 O.3        1 MOL1        -0.3740
      67    C20     23.195162   23.743483   22.015010 C.3        1 MOL1         0.1003
      68    H32     23.337169   24.778429   21.677114 H          1 MOL1         0.0783
      69    O17     23.984399   23.526174   23.190706 O.3        1 MOL1        -0.5519
      70    H33     23.576584   24.104045   23.875171 H          1 MOL1         0.3769
      71    C21     21.695526   23.553520   22.341799 C.3        1 MOL1         0.1053
      72    H34     21.557181   22.535762   22.731969 H          1 MOL1         0.0783
      73    O18     21.301113   24.507235   23.334741 O.3        1 MOL1        -0.5519
      74    H35     20.423712   24.203445   23.677148 H          1 MOL1         0.3769
      75    C22     20.817567   23.705503   21.070955 C.3        1 MOL1         0.1018
      76    H36     20.719972   24.769745   20.818175 H          1 MOL1         0.0783
      77    C23     21.390920   22.951065   19.838804 C.3        1 MOL1         0.1043
      78    H37     21.211801   21.876901   19.973723 H          1 MOL1         0.0783
      79    O19     22.815225   23.194542   19.708994 O.3        1 MOL1        -0.3740
      80    C24     20.717762   23.374408   18.514425 C.3        1 MOL1         0.0138
      81    H38     19.638092   23.186620   18.584623 H          1 MOL1         0.0794
      82    H39     21.110073   22.747364   17.702714 H          1 MOL1         0.0794
      83    O20     20.959618   24.756242   18.233900 O.3        1 MOL1        -0.5486
      84    H40     21.935504   24.873040   18.263427 H          1 MOL1         0.3769
      85    C25     24.795297   17.756806   22.161072 C.3        1 MOL1         0.2972
      86    H41     25.391968   16.892856   22.479493 H          1 MOL1         0.0751
      87    O21     23.573801   17.348295   21.509724 O.3        1 MOL1        -0.3740
      88    C26     24.432530   18.637294   23.383383 C.3        1 MOL1         0.1003
      89    H42     25.374901   18.963491   23.841859 H          1 MOL1         0.0783
      90    O22     23.674723   17.881797   24.344569 O.3        1 MOL1        -0.5519
      91    H43     23.901019   16.930953   24.206351 H          1 MOL1         0.3769
      92    C27     23.649476   19.898609   22.939778 C.3        1 MOL1         0.1053
      93    H44     22.665744   19.576342   22.583036 H          1 MOL1         0.0783
      94    O23     23.487826   20.787372   24.051090 O.3        1 MOL1        -0.5519
      95    H45     23.532470   21.705462   23.692303 H          1 MOL1         0.3769
      96    C28     24.329060   20.643991   21.763906 C.3        1 MOL1         0.1018
      97    H46     25.155166   21.253856   22.153950 H          1 MOL1         0.0783
      98    C29     24.843396   19.684380   20.654020 C.3        1 MOL1         0.1043
      99    H47     23.975561   19.310769   20.094765 H          1 MOL1         0.0783
     100    O24     25.554738   18.568450   21.241259 O.3        1 MOL1        -0.3740
     101    C30     25.788663   20.367646   19.640880 C.3        1 MOL1         0.0138
     102    H48     25.230886   21.140517   19.095679 H          1 MOL1         0.0794
     103    H49     26.115830   19.621444   18.904462 H          1 MOL1         0.0794
     104    O25     26.920275   20.946583   20.296889 O.3        1 MOL1        -0.5486
     105    H50     27.359757   20.215319   20.785558 H          1 MOL1         0.3769
     106    C31     21.377675   13.850251   20.976883 C.3        1 MOL1         0.2972
     107    H51     21.030310   12.845578   20.703323 H          1 MOL1         0.0751
     108    O26     20.287055   14.700894   21.379153 O.3        1 MOL1        -0.3740
     109    C32     22.396300   13.786744   22.144986 C.3        1 MOL1         0.1003
     110    H52     23.245514   13.177077   21.809027 H          1 MOL1         0.0783
     111    O27     21.813376   13.191965   23.318183 O.3        1 MOL1        -0.5519
     112    H53     21.696812   12.234932   23.137394 H          1 MOL1         0.3769
     113    C33     22.928281   15.200885   22.484648 C.3        1 MOL1         0.1053
     114    H54     22.093897   15.777382   22.903175 H          1 MOL1         0.0783
     115    O28     23.964023   15.074405   23.465174 O.3        1 MOL1        -0.5519
     116    H55     23.617682   14.414012   24.107753 H          1 MOL1         0.3769
     117    C34     23.442072   15.942150   21.216180 C.3        1 MOL1         0.1018
     118    H56     24.401191   15.511796   20.898512 H          1 MOL1         0.0783
     119    C35     22.438573   15.846116   20.037283 C.3        1 MOL1         0.1043
     120    H57     21.565119   16.473104   20.260370 H          1 MOL1         0.0783
     121    O29     22.039505   14.466186   19.853288 O.3        1 MOL1        -0.3740
     122    C36     23.057747   16.330811   18.709990 C.3        1 MOL1         0.0138
     123    H58     23.894623   15.673486   18.438453 H          1 MOL1         0.0794
     124    H59     23.458984   17.343708   18.844825 H          1 MOL1         0.0794
     125    O30     22.066502   16.333170   17.681134 O.3        1 MOL1        -0.5486
     126    H60     21.673982   15.432290   17.679965 H          1 MOL1         0.3769
     127    N1      21.259856   19.238804   25.269095 N.4        1 MOL1        -0.5937
     128    H1      21.247077   20.057945   25.881258 H          1 MOL1         0.3684
     129    H2      22.204147   19.210587   24.840336 H          1 MOL1         0.3684
     130    H3      21.178006   18.402996   25.851510 H          1 MOL1         0.3684
     131    C1      20.180631   19.307359   24.223778 C.3        1 MOL1         0.1270
     132    H4      20.360221   20.227662   23.660108 H          1 MOL1         0.0960
     133    C2      18.798778   19.396987   24.894545 C.3        1 MOL1        -0.2382
     134    H5      18.600417   18.513319   25.513443 H          1 MOL1         0.1009
     135    H6      17.996203   19.473150   24.154013 H          1 MOL1         0.1009
     136    H7      18.736614   20.284392   25.536188 H          1 MOL1         0.1009
     137    C3      20.254631   18.110047   23.247882 C.3        1 MOL1        -0.1392
     138    H8      21.299596   17.919977   22.982643 H          1 MOL1         0.0998
     139    H9      19.913869   17.205783   23.766476 H          1 MOL1         0.0998
     140    C4      19.454540   18.302502   21.934363 C.3        1 MOL1        -0.1302
     141    H10     18.392666   18.469327   22.153103 H          1 MOL1         0.0998
     142    H11     19.499706   17.374018   21.349520 H          1 MOL1         0.0998
     143    C5      19.997041   19.458002   21.063905 C.3        1 MOL1        -0.2317
     144    H12     21.044519   19.282889   20.784829 H          1 MOL1         0.1009
     145    H13     19.939346   20.419789   21.586728 H          1 MOL1         0.1009
     146    H14     19.414660   19.548343   20.137808 H          1 MOL1         0.1009
@<TRIPOS>BOND
    1     1     2    1
    2     1     3    1
    3     1     4    1
    4     4     5    1
    5     4     6    1
    6     6     7    1
    7     4     8    1
    8     8     9    1
    9     8    10    1
   10    10    11    1
   11     8    12    1
   12    12    13    1
   13    12    14    1
   14    14    15    1
   15     1    16    1
   16    14    16    1
   17    14    17    1
   18    17    18    1
   19    17    19    1
   20    17    20    1
   21    20    21    1
   22    22    23    1
   23    22    24    1
   24    22    25    1
   25    25    26    1
   26    25    27    1
   27    27    28    1
   28    25    29    1
   29    29    30    1
   30    29    31    1
   31    31    32    1
   32     3    33    1
   33    29    33    1
   34    33    34    1
   35    33    35    1
   36    35    36    1
   37    22    37    1
   38    35    37    1
   39    35    38    1
   40    38    39    1
   41    38    40    1
   42    38    41    1
   43    41    42    1
   44    43    44    1
   45    43    45    1
   46    43    46    1
   47    46    47    1
   48    46    48    1
   49    48    49    1
   50    46    50    1
   51    50    51    1
   52    50    52    1
   53    52    53    1
   54    24    54    1
   55    50    54    1
   56    54    55    1
   57    54    56    1
   58    56    57    1
   59    43    58    1
   60    56    58    1
   61    56    59    1
   62    59    60    1
   63    59    61    1
   64    59    62    1
   65    62    63    1
   66    64    65    1
   67    64    66    1
   68    64    67    1
   69    67    68    1
   70    67    69    1
   71    69    70    1
   72    67    71    1
   73    71    72    1
   74    71    73    1
   75    73    74    1
   76    45    75    1
   77    71    75    1
   78    75    76    1
   79    75    77    1
   80    77    78    1
   81    64    79    1
   82    77    79    1
   83    77    80    1
   84    80    81    1
   85    80    82    1
   86    80    83    1
   87    83    84    1
   88    85    86    1
   89    85    87    1
   90    85    88    1
   91    88    89    1
   92    88    90    1
   93    90    91    1
   94    88    92    1
   95    92    93    1
   96    92    94    1
   97    94    95    1
   98    66    96    1
   99    92    96    1
  100    96    97    1
  101    96    98    1
  102    98    99    1
  103    85   100    1
  104    98   100    1
  105    98   101    1
  106   101   102    1
  107   101   103    1
  108   101   104    1
  109   104   105    1
  110   106   107    1
  111    12   108    1
  112   106   108    1
  113   106   109    1
  114   109   110    1
  115   109   111    1
  116   111   112    1
  117   109   113    1
  118   113   114    1
  119   113   115    1
  120   115   116    1
  121    87   117    1
  122   113   117    1
  123   117   118    1
  124   117   119    1
  125   119   120    1
  126   106   121    1
  127   119   121    1
  128   119   122    1
  129   122   123    1
  130   122   124    1
  131   122   125    1
  132   125   126    1
  133   127   128    1
  134   127   129    1
  135   127   130    1
  136   127   131    1
  137   131   132    1
  138   131   133    1
  139   133   134    1
  140   133   135    1
  141   133   136    1
  142   131   137    1
  143   137   138    1
  144   137   139    1
  145   137   140    1
  146   140   141    1
  147   140   142    1
  148   140   143    1
  149   143   144    1
  150   143   145    1
  151   143   146    1
@<TRIPOS>SUBSTRUCTURE
       1 MOL1            1 RESIDUE      1      MOL     
       2 MOL1          146 RESIDUE      1      MOL     
@<SCITEGIC>MOL_PROPERTY
VM2 Rank
SciTegic.value.IntegerValue
7

@<SCITEGIC>MOL_PROPERTY
Conf_Id
SciTegic.value.IntegerValue
14661

@<SCITEGIC>MOL_PROPERTY
Probability
SciTegic.value.DoubleValue
0.98

@<SCITEGIC>MOL_PROPERTY
Sum Probability
SciTegic.value.DoubleValue
8.06

@<SCITEGIC>MOL_PROPERTY
Delta G
SciTegic.value.DoubleValue
0.171

@<SCITEGIC>MOL_PROPERTY
G
SciTegic.value.DoubleValue
525.320

@<SCITEGIC>MOL_PROPERTY
E
SciTegic.value.DoubleValue
332.778

@<SCITEGIC>MOL_PROPERTY
-TS
SciTegic.value.DoubleValue
192.541

@<SCITEGIC>MOL_PROPERTY
U+W
SciTegic.value.DoubleValue
204.007

@<SCITEGIC>MOL_PROPERTY
U
SciTegic.value.DoubleValue
278.302

@<SCITEGIC>MOL_PROPERTY
W
SciTegic.value.DoubleValue
-74.295

@<SCITEGIC>MOL_PROPERTY
W(PB)
SciTegic.value.DoubleValue
-80.386

@<SCITEGIC>MOL_PROPERTY
W(SA)
SciTegic.value.DoubleValue
6.091

@<SCITEGIC>MOL_PROPERTY
Valence
SciTegic.value.DoubleValue
145.051

@<SCITEGIC>MOL_PROPERTY
Coulomb
SciTegic.value.DoubleValue
156.075

@<SCITEGIC>MOL_PROPERTY
VdW
SciTegic.value.DoubleValue
-22.825

@<SCITEGIC>MOL_PROPERTY
VdW6
SciTegic.value.DoubleValue
-172.067

@<SCITEGIC>MOL_PROPERTY
VdW12
SciTegic.value.DoubleValue
149.242

@<SCITEGIC>MOL_PROPERTY
Bond
SciTegic.value.DoubleValue
4.251

@<SCITEGIC>MOL_PROPERTY
Angle
SciTegic.value.DoubleValue
10.324

@<SCITEGIC>MOL_PROPERTY
Pdih
SciTegic.value.DoubleValue
130.476

@<SCITEGIC>MOL_PROPERTY
Idih
SciTegic.value.DoubleValue
0.000

@<SCITEGIC>MOL_PROPERTY
Tether
SciTegic.value.DoubleValue
0.000

@<TRIPOS>MOLECULE
CD_guest-s10_vm2_single.mol2 : vm2 host+ligand conformer 8
         146         151           2
SMALL
USER_CHARGES
 
@<TRIPOS>ATOM
       1    C1      16.221344   15.103075   20.855382 C.3        1 MOL1         0.2972
       2    H1      15.147604   14.981408   20.662327 H          1 MOL1         0.0751
       3    O1      16.544618   16.458058   21.228940 O.3        1 MOL1        -0.3740
       4    C2      16.703747   14.147339   21.979695 C.3        1 MOL1         0.1003
       5    H2      16.541027   13.118584   21.631830 H          1 MOL1         0.0783
       6    O2      15.981773   14.354322   23.204763 O.3        1 MOL1        -0.5519
       7    H3      15.078489   13.992322   23.080636 H          1 MOL1         0.3769
       8    C3      18.220749   14.334125   22.220371 C.3        1 MOL1         0.1053
       9    H4      18.383081   15.346225   22.614004 H          1 MOL1         0.0783
      10    O3      18.673641   13.369254   23.174301 O.3        1 MOL1        -0.5519
      11    H5      18.005189   13.395564   23.895232 H          1 MOL1         0.3769
      12    C4      19.019306   14.191637   20.901325 C.3        1 MOL1         0.1018
      13    H6      19.049422   13.129420   20.625356 H          1 MOL1         0.0783
      14    C5      18.400705   15.013790   19.736729 C.3        1 MOL1         0.1043
      15    H7      18.589238   16.078758   19.922861 H          1 MOL1         0.0783
      16    O4      16.972179   14.778631   19.666453 O.3        1 MOL1        -0.3740
      17    C6      19.001930   14.663356   18.357778 C.3        1 MOL1         0.0138
      18    H8      20.071970   14.905915   18.361780 H          1 MOL1         0.0794
      19    H9      18.526854   15.294017   17.594532 H          1 MOL1         0.0794
      20    O5      18.810601   13.279837   18.047813 O.3        1 MOL1        -0.5486
      21    H10     17.842376   13.118485   18.101335 H          1 MOL1         0.3769
      22    C7      14.942906   20.167361   22.009587 C.3        1 MOL1         0.2972
      23    H11     14.314890   21.034585   22.250522 H          1 MOL1         0.0751
      24    O6      16.252874   20.568393   21.553876 O.3        1 MOL1        -0.3740
      25    C8      15.092304   19.263921   23.256462 C.3        1 MOL1         0.1003
      26    H12     14.087308   18.915565   23.528445 H          1 MOL1         0.0783
      27    O7      15.653931   19.982682   24.362984 O.3        1 MOL1        -0.5519
      28    H13     15.801066   19.295469   25.049649 H          1 MOL1         0.3769
      29    C9      15.952960   18.022240   22.937248 C.3        1 MOL1         0.1053
      30    H14     16.977546   18.358557   22.743510 H          1 MOL1         0.0783
      31    O8      15.931935   17.138460   24.064024 O.3        1 MOL1        -0.5519
      32    H15     16.187619   16.241821   23.737887 H          1 MOL1         0.3769
      33    C10     15.450640   17.284009   21.671607 C.3        1 MOL1         0.1018
      34    H16     14.566414   16.690517   21.939760 H          1 MOL1         0.0783
      35    C11     15.113607   18.248633   20.498513 C.3        1 MOL1         0.1043
      36    H17     16.058829   18.613306   20.075707 H          1 MOL1         0.0783
      37    O9      14.330214   19.372955   20.972105 O.3        1 MOL1        -0.3740
      38    C12     14.324197   17.570345   19.356724 C.3        1 MOL1         0.0138
      39    H18     14.951886   16.794155   18.899097 H          1 MOL1         0.0794
      40    H19     14.112377   18.317802   18.580446 H          1 MOL1         0.0794
      41    O10     13.105956   16.997039   19.840262 O.3        1 MOL1        -0.5486
      42    H20     12.598453   17.732640   20.250092 H          1 MOL1         0.3769
      43    C13     18.436713   24.059621   20.896939 C.3        1 MOL1         0.2972
      44    H21     18.746884   25.076447   20.625376 H          1 MOL1         0.0751
      45    O11     19.563389   23.219481   21.216237 O.3        1 MOL1        -0.3740
      46    C14     17.497842   24.096665   22.129432 C.3        1 MOL1         0.1003
      47    H22     16.626056   24.707629   21.861382 H          1 MOL1         0.0783
      48    O12     18.153461   24.678958   23.265008 O.3        1 MOL1        -0.5519
      49    H23     17.535536   24.523292   24.014420 H          1 MOL1         0.3769
      50    C15     16.996452   22.677173   22.485120 C.3        1 MOL1         0.1053
      51    H24     17.858956   22.093803   22.832502 H          1 MOL1         0.0783
      52    O13     16.019566   22.767233   23.529007 O.3        1 MOL1        -0.5519
      53    H25     15.886621   21.847431   23.868910 H          1 MOL1         0.3769
      54    C16     16.400782   21.966698   21.240153 C.3        1 MOL1         0.1018
      55    H26     15.437839   22.425962   20.978734 H          1 MOL1         0.0783
      56    C17     17.337620   22.062020   20.008423 C.3        1 MOL1         0.1043
      57    H27     18.225853   21.439947   20.182070 H          1 MOL1         0.0783
      58    O14     17.713629   23.446719   19.808774 O.3        1 MOL1        -0.3740
      59    C18     16.645652   21.580436   18.716275 C.3        1 MOL1         0.0138
      60    H28     15.784398   22.227596   18.502647 H          1 MOL1         0.0794
      61    H29     16.266850   20.561432   18.865206 H          1 MOL1         0.0794
      62    O15     17.571142   21.601465   17.627932 O.3        1 MOL1        -0.5486
      63    H30     17.911750   22.521750   17.579267 H          1 MOL1         0.3769
      64    C19     23.653395   22.842270   21.022473 C.3        1 MOL1         0.2972
      65    H31     24.737891   22.938367   20.883501 H          1 MOL1         0.0751
      66    O16     23.273031   21.477896   21.298092 O.3        1 MOL1        -0.3740
      67    C20     23.147885   23.771891   22.157746 C.3        1 MOL1         0.1003
      68    H32     23.344063   24.805129   21.842494 H          1 MOL1         0.0783
      69    O17     23.821021   23.529908   23.399073 O.3        1 MOL1        -0.5519
      70    H33     23.365308   24.113075   24.048005 H          1 MOL1         0.3769
      71    C21     21.621083   23.616337   22.344554 C.3        1 MOL1         0.1053
      72    H34     21.421198   22.603088   22.718519 H          1 MOL1         0.0783
      73    O18     21.149088   24.584349   23.289535 O.3        1 MOL1        -0.5519
      74    H35     20.162195   24.512045   23.302788 H          1 MOL1         0.3769
      75    C22     20.866701   23.792053   21.004050 C.3        1 MOL1         0.1018
      76    H36     20.818358   24.863832   20.770489 H          1 MOL1         0.0783
      77    C23     21.526938   23.030260   19.819840 C.3        1 MOL1         0.1043
      78    H37     21.312502   21.959214   19.933610 H          1 MOL1         0.0783
      79    O19     22.961988   23.244612   19.821313 O.3        1 MOL1        -0.3740
      80    C24     20.990328   23.470165   18.439910 C.3        1 MOL1         0.0138
      81    H38     19.917455   23.247865   18.385474 H          1 MOL1         0.0794
      82    H39     21.487101   22.875287   17.661865 H          1 MOL1         0.0794
      83    O20     21.216990   24.865328   18.218445 O.3        1 MOL1        -0.5486
      84    H40     22.184675   25.005296   18.321192 H          1 MOL1         0.3769
      85    C25     24.665728   17.775588   22.436972 C.3        1 MOL1         0.2972
      86    H41     25.233634   16.919877   22.823025 H          1 MOL1         0.0751
      87    O21     23.545419   17.348940   21.634006 O.3        1 MOL1        -0.3740
      88    C26     24.133635   18.637109   23.611274 C.3        1 MOL1         0.1003
      89    H42     25.003530   18.959151   24.197847 H          1 MOL1         0.0783
      90    O22     23.263717   17.850360   24.446752 O.3        1 MOL1        -0.5519
      91    H43     23.539755   16.908489   24.337330 H          1 MOL1         0.3769
      92    C27     23.409667   19.906965   23.087756 C.3        1 MOL1         0.1053
      93    H44     22.469830   19.587228   22.622939 H          1 MOL1         0.0783
      94    O23     23.134399   20.808735   24.169277 O.3        1 MOL1        -0.5519
      95    H45     23.291213   21.720428   23.823804 H          1 MOL1         0.3769
      96    C28     24.224586   20.656939   22.002783 C.3        1 MOL1         0.1018
      97    H46     25.004403   21.255693   22.492512 H          1 MOL1         0.0783
      98    C29     24.864547   19.706835   20.953380 C.3        1 MOL1         0.1043
      99    H47     24.067015   19.324497   20.302656 H          1 MOL1         0.0783
     100    O24     25.519636   18.602539   21.620217 O.3        1 MOL1        -0.3740
     101    C30     25.909079   20.399062   20.049314 C.3        1 MOL1         0.0138
     102    H48     25.406120   21.161642   19.440125 H          1 MOL1         0.0794
     103    H49     26.326602   19.654313   19.358527 H          1 MOL1         0.0794
     104    O25     26.952425   20.996402   20.824425 O.3        1 MOL1        -0.5486
     105    H50     27.343832   20.273447   21.363701 H          1 MOL1         0.3769
     106    C31     21.444274   13.852645   20.873097 C.3        1 MOL1         0.2972
     107    H51     21.117415   12.846112   20.582881 H          1 MOL1         0.0751
     108    O26     20.331677   14.724748   21.159029 O.3        1 MOL1        -0.3740
     109    C32     22.330803   13.788217   22.139424 C.3        1 MOL1         0.1003
     110    H52     23.215368   13.187672   21.890169 H          1 MOL1         0.0783
     111    O27     21.634372   13.164979   23.230127 O.3        1 MOL1        -0.5519
     112    H53     20.682556   13.432250   23.166244 H          1 MOL1         0.3769
     113    C33     22.814409   15.202610   22.540776 C.3        1 MOL1         0.1053
     114    H54     21.938735   15.783438   22.861080 H          1 MOL1         0.0783
     115    O28     23.734233   15.072486   23.630584 O.3        1 MOL1        -0.5519
     116    H55     23.341514   14.376303   24.205747 H          1 MOL1         0.3769
     117    C34     23.470680   15.939902   21.336967 C.3        1 MOL1         0.1018
     118    H56     24.467910   15.521165   21.146608 H          1 MOL1         0.0783
     119    C35     22.627123   15.824262   20.038738 C.3        1 MOL1         0.1043
     120    H57     21.737799   16.459366   20.135582 H          1 MOL1         0.0783
     121    O29     22.238971   14.445343   19.825885 O.3        1 MOL1        -0.3740
     122    C36     23.415091   16.283079   18.794366 C.3        1 MOL1         0.0138
     123    H58     24.287896   15.630914   18.656259 H          1 MOL1         0.0794
     124    H59     23.783802   17.304585   18.956078 H          1 MOL1         0.0794
     125    O30     22.572714   16.245255   17.640577 O.3        1 MOL1        -0.5486
     126    H60     22.222841   15.328105   17.590319 H          1 MOL1         0.3769
     127    N1      21.143370   19.357791   25.630567 N.4        1 MOL1        -0.5937
     128    H1      21.272205   19.321214   26.643327 H          1 MOL1         0.3684
     129    H2      21.714031   20.139587   25.272082 H          1 MOL1         0.3684
     130    H3      21.596521   18.523664   25.229217 H          1 MOL1         0.3684
     131    C1      19.698334   19.482800   25.236367 C.3        1 MOL1         0.1270
     132    H4      19.339877   20.401425   25.711033 H          1 MOL1         0.0960
     133    C2      18.872281   18.315118   25.801993 C.3        1 MOL1        -0.2382
     134    H5      17.817146   18.415936   25.525545 H          1 MOL1         0.1009
     135    H6      18.928252   18.300143   26.896972 H          1 MOL1         0.1009
     136    H7      19.233078   17.346794   25.435118 H          1 MOL1         0.1009
     137    C3      19.506737   19.657354   23.710767 C.3        1 MOL1        -0.1392
     138    H8      18.464096   19.942531   23.523074 H          1 MOL1         0.0998
     139    H9      20.114996   20.509193   23.378742 H          1 MOL1         0.0998
     140    C4      19.852336   18.412909   22.852535 C.3        1 MOL1        -0.1302
     141    H10     19.179597   17.581508   23.099583 H          1 MOL1         0.0998
     142    H11     20.869562   18.065375   23.072858 H          1 MOL1         0.0998
     143    C5      19.732891   18.722224   21.345157 C.3        1 MOL1        -0.2317
     144    H12     18.712632   19.033072   21.084889 H          1 MOL1         0.1009
     145    H13     19.976183   17.834698   20.749486 H          1 MOL1         0.1009
     146    H14     20.421784   19.524975   21.050717 H          1 MOL1         0.1009
@<TRIPOS>BOND
    1     1     2    1
    2     1     3    1
    3     1     4    1
    4     4     5    1
    5     4     6    1
    6     6     7    1
    7     4     8    1
    8     8     9    1
    9     8    10    1
   10    10    11    1
   11     8    12    1
   12    12    13    1
   13    12    14    1
   14    14    15    1
   15     1    16    1
   16    14    16    1
   17    14    17    1
   18    17    18    1
   19    17    19    1
   20    17    20    1
   21    20    21    1
   22    22    23    1
   23    22    24    1
   24    22    25    1
   25    25    26    1
   26    25    27    1
   27    27    28    1
   28    25    29    1
   29    29    30    1
   30    29    31    1
   31    31    32    1
   32     3    33    1
   33    29    33    1
   34    33    34    1
   35    33    35    1
   36    35    36    1
   37    22    37    1
   38    35    37    1
   39    35    38    1
   40    38    39    1
   41    38    40    1
   42    38    41    1
   43    41    42    1
   44    43    44    1
   45    43    45    1
   46    43    46    1
   47    46    47    1
   48    46    48    1
   49    48    49    1
   50    46    50    1
   51    50    51    1
   52    50    52    1
   53    52    53    1
   54    24    54    1
   55    50    54    1
   56    54    55    1
   57    54    56    1
   58    56    57    1
   59    43    58    1
   60    56    58    1
   61    56    59    1
   62    59    60    1
   63    59    61    1
   64    59    62    1
   65    62    63    1
   66    64    65    1
   67    64    66    1
   68    64    67    1
   69    67    68    1
   70    67    69    1
   71    69    70    1
   72    67    71    1
   73    71    72    1
   74    71    73    1
   75    73    74    1
   76    45    75    1
   77    71    75    1
   78    75    76    1
   79    75    77    1
   80    77    78    1
   81    64    79    1
   82    77    79    1
   83    77    80    1
   84    80    81    1
   85    80    82    1
   86    80    83    1
   87    83    84    1
   88    85    86    1
   89    85    87    1
   90    85    88    1
   91    88    89    1
   92    88    90    1
   93    90    91    1
   94    88    92    1
   95    92    93    1
   96    92    94    1
   97    94    95    1
   98    66    96    1
   99    92    96    1
  100    96    97    1
  101    96    98    1
  102    98    99    1
  103    85   100    1
  104    98   100    1
  105    98   101    1
  106   101   102    1
  107   101   103    1
  108   101   104    1
  109   104   105    1
  110   106   107    1
  111    12   108    1
  112   106   108    1
  113   106   109    1
  114   109   110    1
  115   109   111    1
  116   111   112    1
  117   109   113    1
  118   113   114    1
  119   113   115    1
  120   115   116    1
  121    87   117    1
  122   113   117    1
  123   117   118    1
  124   117   119    1
  125   119   120    1
  126   106   121    1
  127   119   121    1
  128   119   122    1
  129   122   123    1
  130   122   124    1
  131   122   125    1
  132   125   126    1
  133   127   128    1
  134   127   129    1
  135   127   130    1
  136   127   131    1
  137   131   132    1
  138   131   133    1
  139   133   134    1
  140   133   135    1
  141   133   136    1
  142   131   137    1
  143   137   138    1
  144   137   139    1
  145   137   140    1
  146   140   141    1
  147   140   142    1
  148   140   143    1
  149   143   144    1
  150   143   145    1
  151   143   146    1
@<TRIPOS>SUBSTRUCTURE
       1 MOL1            1 RESIDUE      1      MOL     
       2 MOL1          146 RESIDUE      1      MOL     
@<SCITEGIC>MOL_PROPERTY
VM2 Rank
SciTegic.value.IntegerValue
8

@<SCITEGIC>MOL_PROPERTY
Conf_Id
SciTegic.value.IntegerValue
24217

@<SCITEGIC>MOL_PROPERTY
Probability
SciTegic.value.DoubleValue
0.86

@<SCITEGIC>MOL_PROPERTY
Sum Probability
SciTegic.value.DoubleValue
8.92

@<SCITEGIC>MOL_PROPERTY
Delta G
SciTegic.value.DoubleValue
0.245

@<SCITEGIC>MOL_PROPERTY
G
SciTegic.value.DoubleValue
525.393

@<SCITEGIC>MOL_PROPERTY
E
SciTegic.value.DoubleValue
332.787

@<SCITEGIC>MOL_PROPERTY
-TS
SciTegic.value.DoubleValue
192.606

@<SCITEGIC>MOL_PROPERTY
U+W
SciTegic.value.DoubleValue
204.016

@<SCITEGIC>MOL_PROPERTY
U
SciTegic.value.DoubleValue
277.070

@<SCITEGIC>MOL_PROPERTY
W
SciTegic.value.DoubleValue
-73.054

@<SCITEGIC>MOL_PROPERTY
W(PB)
SciTegic.value.DoubleValue
-79.263

@<SCITEGIC>MOL_PROPERTY
W(SA)
SciTegic.value.DoubleValue
6.209

@<SCITEGIC>MOL_PROPERTY
Valence
SciTegic.value.DoubleValue
145.962

@<SCITEGIC>MOL_PROPERTY
Coulomb
SciTegic.value.DoubleValue
150.755

@<SCITEGIC>MOL_PROPERTY
VdW
SciTegic.value.DoubleValue
-19.647

@<SCITEGIC>MOL_PROPERTY
VdW6
SciTegic.value.DoubleValue
-168.731

@<SCITEGIC>MOL_PROPERTY
VdW12
SciTegic.value.DoubleValue
149.084

@<SCITEGIC>MOL_PROPERTY
Bond
SciTegic.value.DoubleValue
4.278

@<SCITEGIC>MOL_PROPERTY
Angle
SciTegic.value.DoubleValue
10.588

@<SCITEGIC>MOL_PROPERTY
Pdih
SciTegic.value.DoubleValue
131.096

@<SCITEGIC>MOL_PROPERTY
Idih
SciTegic.value.DoubleValue
0.000

@<SCITEGIC>MOL_PROPERTY
Tether
SciTegic.value.DoubleValue
0.000

