@<TRIPOS>MOLECULE
CD_guest-5_vm2_single.mol2 : vm2 host+ligand conformer 1
         148         154           2
SMALL
USER_CHARGES
 
@<TRIPOS>ATOM
       1    C1      16.219417   15.181780   21.606246 C.3        1 MOL1         0.2972
       2    H1      15.137632   14.996520   21.599307 H          1 MOL1         0.0751
       3    O1      16.522694   16.576648   21.410350 O.3        1 MOL1        -0.3740
       4    C2      16.830719   14.725063   22.955944 C.3        1 MOL1         0.1003
       5    H2      16.644865   13.647450   23.051941 H          1 MOL1         0.0783
       6    O2      16.223990   15.404967   24.065958 O.3        1 MOL1        -0.5519
       7    H3      15.691436   16.152395   23.696817 H          1 MOL1         0.3769
       8    C3      18.359907   14.946750   22.963898 C.3        1 MOL1         0.1053
       9    H4      18.539056   16.026503   22.924742 H          1 MOL1         0.0783
      10    O3      18.913502   14.401702   24.164941 O.3        1 MOL1        -0.5519
      11    H5      18.313400   14.713712   24.878833 H          1 MOL1         0.3769
      12    C4      19.030169   14.297464   21.730149 C.3        1 MOL1         0.1018
      13    H6      19.015681   13.208532   21.869823 H          1 MOL1         0.0783
      14    C5      18.298023   14.661543   20.408434 C.3        1 MOL1         0.1043
      15    H7      18.487302   15.720708   20.187719 H          1 MOL1         0.0783
      16    O4      16.871610   14.435131   20.556101 O.3        1 MOL1        -0.3740
      17    C6      18.774663   13.831137   19.196184 C.3        1 MOL1         0.0138
      18    H8      19.833498   14.047669   19.004707 H          1 MOL1         0.0794
      19    H9      18.211020   14.148191   18.308573 H          1 MOL1         0.0794
      20    O5      18.589998   12.431085   19.426734 O.3        1 MOL1        -0.5486
      21    H10     17.635362   12.311418   19.628670 H          1 MOL1         0.3769
      22    C7      14.732435   20.267861   20.693764 C.3        1 MOL1         0.2972
      23    H11     14.057543   21.074287   20.380752 H          1 MOL1         0.0751
      24    O6      15.984246   20.778996   21.189799 O.3        1 MOL1        -0.3740
      25    C8      14.080492   19.433432   21.824495 C.3        1 MOL1         0.1003
      26    H12     13.139637   19.026263   21.432007 H          1 MOL1         0.0783
      27    O7      13.798108   20.259150   22.966026 O.3        1 MOL1        -0.5519
      28    H13     14.548697   20.898482   23.060354 H          1 MOL1         0.3769
      29    C9      14.982018   18.241685   22.230113 C.3        1 MOL1         0.1053
      30    H14     15.879500   18.646643   22.714296 H          1 MOL1         0.0783
      31    O8      14.272708   17.408170   23.150851 O.3        1 MOL1        -0.5519
      32    H15     13.845654   18.032299   23.780129 H          1 MOL1         0.3769
      33    C10     15.428814   17.417482   20.994641 C.3        1 MOL1         0.1018
      34    H16     14.580743   16.829441   20.619469 H          1 MOL1         0.0783
      35    C11     15.957401   18.321290   19.849244 C.3        1 MOL1         0.1043
      36    H17     16.923135   18.746488   20.152997 H          1 MOL1         0.0783
      37    O9      15.007129   19.384071   19.587566 O.3        1 MOL1        -0.3740
      38    C12     16.172317   17.553363   18.526197 C.3        1 MOL1         0.0138
      39    H18     16.895128   16.744238   18.692884 H          1 MOL1         0.0794
      40    H19     16.609434   18.239079   17.788103 H          1 MOL1         0.0794
      41    O10     14.938997   17.018755   18.036351 O.3        1 MOL1        -0.5486
      42    H20     14.312579   17.775440   17.996803 H          1 MOL1         0.3769
      43    C13     18.394996   24.153276   21.277988 C.3        1 MOL1         0.2972
      44    H21     18.824699   25.160523   21.200389 H          1 MOL1         0.0751
      45    O11     19.401003   23.161684   21.562347 O.3        1 MOL1        -0.3740
      46    C14     17.321991   24.088516   22.394052 C.3        1 MOL1         0.1003
      47    H22     16.526722   24.797525   22.129868 H          1 MOL1         0.0783
      48    O12     17.874100   24.451784   23.669659 O.3        1 MOL1        -0.5519
      49    H23     18.683715   23.898394   23.812686 H          1 MOL1         0.3769
      50    C15     16.702696   22.672073   22.457271 C.3        1 MOL1         0.1053
      51    H24     17.490101   21.985067   22.787860 H          1 MOL1         0.0783
      52    O13     15.619104   22.657656   23.392278 O.3        1 MOL1        -0.5519
      53    H25     15.954623   23.139181   24.180868 H          1 MOL1         0.3769
      54    C16     16.205287   22.197836   21.068376 C.3        1 MOL1         0.1018
      55    H26     15.282798   22.740892   20.823987 H          1 MOL1         0.0783
      56    C17     17.259666   22.430934   19.950620 C.3        1 MOL1         0.1043
      57    H27     18.082764   21.715395   20.081676 H          1 MOL1         0.0783
      58    O14     17.752222   23.791960   20.037799 O.3        1 MOL1        -0.3740
      59    C18     16.680109   22.250143   18.531895 C.3        1 MOL1         0.0138
      60    H28     15.860599   22.965281   18.380316 H          1 MOL1         0.0794
      61    H29     16.267329   21.239527   18.429758 H          1 MOL1         0.0794
      62    O15     17.706533   22.450250   17.558146 O.3        1 MOL1        -0.5486
      63    H30     18.132177   23.306168   17.788492 H          1 MOL1         0.3769
      64    C19     23.448076   22.649044   22.119295 C.3        1 MOL1         0.2972
      65    H31     24.523896   22.747166   22.310955 H          1 MOL1         0.0751
      66    O16     23.117958   21.354681   21.575724 O.3        1 MOL1        -0.3740
      67    C20     22.649819   22.844924   23.431762 C.3        1 MOL1         0.1003
      68    H32     22.867767   23.856726   23.797587 H          1 MOL1         0.0783
      69    O17     23.048313   21.885697   24.425204 O.3        1 MOL1        -0.5519
      70    H33     23.906900   21.501866   24.127380 H          1 MOL1         0.3769
      71    C21     21.128982   22.742679   23.164287 C.3        1 MOL1         0.1053
      72    H34     20.905847   21.705711   22.889968 H          1 MOL1         0.0783
      73    O18     20.411433   23.087962   24.352939 O.3        1 MOL1        -0.5519
      74    H35     20.863533   22.588838   25.069418 H          1 MOL1         0.3769
      75    C22     20.683413   23.654040   21.993104 C.3        1 MOL1         0.1018
      76    H36     20.625570   24.687424   22.360259 H          1 MOL1         0.0783
      77    C23     21.633399   23.573138   20.764318 C.3        1 MOL1         0.1043
      78    H37     21.465043   22.610162   20.265495 H          1 MOL1         0.0783
      79    O19     23.014694   23.662924   21.189392 O.3        1 MOL1        -0.3740
      80    C24     21.390220   24.686446   19.720986 C.3        1 MOL1         0.0138
      81    H38     20.389399   24.560056   19.287841 H          1 MOL1         0.0794
      82    H39     22.115322   24.568744   18.904449 H          1 MOL1         0.0794
      83    O20     21.512241   25.984195   20.310619 O.3        1 MOL1        -0.5486
      84    H40     22.416846   26.028743   20.693087 H          1 MOL1         0.3769
      85    C25     25.002841   17.736421   20.764567 C.3        1 MOL1         0.2972
      86    H41     25.667091   16.940489   20.403973 H          1 MOL1         0.0751
      87    O21     23.812453   17.204412   21.373144 O.3        1 MOL1        -0.3740
      88    C26     25.717256   18.600231   21.834508 C.3        1 MOL1         0.1003
      89    H42     26.620055   19.019912   21.372159 H          1 MOL1         0.0783
      90    O22     26.089094   17.790079   22.962067 O.3        1 MOL1        -0.5519
      91    H43     25.322468   17.193940   23.153942 H          1 MOL1         0.3769
      92    C27     24.821883   19.778107   22.298192 C.3        1 MOL1         0.1053
      93    H44     23.989704   19.355949   22.869393 H          1 MOL1         0.0783
      94    O23     25.581854   20.638837   23.153725 O.3        1 MOL1        -0.5519
      95    H45     26.095605   20.031174   23.732602 H          1 MOL1         0.3769
      96    C28     24.224840   20.565912   21.097000 C.3        1 MOL1         0.1018
      97    H46     24.999812   21.199077   20.645023 H          1 MOL1         0.0783
      98    C29     23.644930   19.623052   20.008540 C.3        1 MOL1         0.1043
      99    H47     22.728468   19.158184   20.397490 H          1 MOL1         0.0783
     100    O24     24.616474   18.602183   19.678674 O.3        1 MOL1        -0.3740
     101    C30     23.281482   20.356811   18.698618 C.3        1 MOL1         0.0138
     102    H48     22.524585   21.121798   18.912468 H          1 MOL1         0.0794
     103    H49     22.830797   19.634415   18.005125 H          1 MOL1         0.0794
     104    O25     24.436850   20.957462   18.106086 O.3        1 MOL1        -0.5486
     105    H50     25.103378   20.239344   18.024776 H          1 MOL1         0.3769
     106    C31     21.418785   13.828840   21.487513 C.3        1 MOL1         0.2972
     107    H51     21.013273   12.809732   21.451394 H          1 MOL1         0.0751
     108    O26     20.376512   14.815564   21.658314 O.3        1 MOL1        -0.3740
     109    C32     22.417257   13.967394   22.663689 C.3        1 MOL1         0.1003
     110    H52     23.228769   13.247805   22.494644 H          1 MOL1         0.0783
     111    O27     21.782526   13.674660   23.919011 O.3        1 MOL1        -0.5519
     112    H53     20.874239   14.069740   23.896581 H          1 MOL1         0.3769
     113    C33     23.035291   15.384393   22.685645 C.3        1 MOL1         0.1053
     114    H54     22.233600   16.091821   22.919601 H          1 MOL1         0.0783
     115    O28     24.053827   15.455369   23.689848 O.3        1 MOL1        -0.5519
     116    H55     23.659976   15.026487   24.481556 H          1 MOL1         0.3769
     117    C34     23.627221   15.778059   21.311414 C.3        1 MOL1         0.1018
     118    H56     24.579642   15.247500   21.182096 H          1 MOL1         0.0783
     119    C35     22.666230   15.454161   20.130013 C.3        1 MOL1         0.1043
     120    H57     21.839761   16.174882   20.141119 H          1 MOL1         0.0783
     121    O29     22.139767   14.112143   20.270458 O.3        1 MOL1        -0.3740
     122    C36     23.339055   15.530704   18.741155 C.3        1 MOL1         0.0138
     123    H58     23.641136   16.565343   18.539614 H          1 MOL1         0.0794
     124    H59     22.599066   15.256641   17.977446 H          1 MOL1         0.0794
     125    O30     24.471960   14.659837   18.666765 O.3        1 MOL1        -0.5486
     126    H60     24.139182   13.759670   18.879613 H          1 MOL1         0.3769
     127    C1      18.374126   18.604123   25.116591 C.3        1 MOL1        -0.1685
     128    H1      17.793480   18.982541   25.968515 H          1 MOL1         0.0832
     129    H2      17.844461   17.707996   24.766473 H          1 MOL1         0.0832
     130    C2      19.775733   18.216202   25.630225 C.3        1 MOL1        -0.1685
     131    H3      20.245503   19.088049   26.105390 H          1 MOL1         0.0832
     132    H4      19.657134   17.465266   26.422842 H          1 MOL1         0.0832
     133    C3      20.721757   17.646204   24.552607 C.3        1 MOL1        -0.1685
     134    H5      20.268078   16.783011   24.057776 H          1 MOL1         0.0832
     135    H6      21.614603   17.263739   25.065524 H          1 MOL1         0.0832
     136    C4      21.181719   18.697487   23.516108 C.3        1 MOL1        -0.1761
     137    H7      21.374091   19.650199   24.024445 H          1 MOL1         0.0832
     138    H8      22.149046   18.378842   23.119521 H          1 MOL1         0.0832
     139    C5      20.248198   18.938084   22.308113 C.3        1 MOL1         0.1218
     140    H9      20.599122   19.854021   21.813754 H          1 MOL1         0.0789
     141    C6      18.745107   19.124184   22.614801 C.3        1 MOL1        -0.1761
     142    H10     18.348064   19.804955   21.853367 H          1 MOL1         0.0832
     143    H11     18.217120   18.178610   22.464690 H          1 MOL1         0.0832
     144    C7      18.374820   19.681773   24.009783 C.3        1 MOL1        -0.1685
     145    H12     19.021765   20.526158   24.281852 H          1 MOL1         0.0832
     146    H13     17.355006   20.083321   23.952196 H          1 MOL1         0.0832
     147    O1      20.390520   17.863147   21.388586 O.3        1 MOL1        -0.5509
     148    H14     20.263891   17.037125   21.896814 H          1 MOL1         0.3779
@<TRIPOS>BOND
    1     1     2    1
    2     1     3    1
    3     1     4    1
    4     4     5    1
    5     4     6    1
    6     6     7    1
    7     4     8    1
    8     8     9    1
    9     8    10    1
   10    10    11    1
   11     8    12    1
   12    12    13    1
   13    12    14    1
   14    14    15    1
   15     1    16    1
   16    14    16    1
   17    14    17    1
   18    17    18    1
   19    17    19    1
   20    17    20    1
   21    20    21    1
   22    22    23    1
   23    22    24    1
   24    22    25    1
   25    25    26    1
   26    25    27    1
   27    27    28    1
   28    25    29    1
   29    29    30    1
   30    29    31    1
   31    31    32    1
   32     3    33    1
   33    29    33    1
   34    33    34    1
   35    33    35    1
   36    35    36    1
   37    22    37    1
   38    35    37    1
   39    35    38    1
   40    38    39    1
   41    38    40    1
   42    38    41    1
   43    41    42    1
   44    43    44    1
   45    43    45    1
   46    43    46    1
   47    46    47    1
   48    46    48    1
   49    48    49    1
   50    46    50    1
   51    50    51    1
   52    50    52    1
   53    52    53    1
   54    24    54    1
   55    50    54    1
   56    54    55    1
   57    54    56    1
   58    56    57    1
   59    43    58    1
   60    56    58    1
   61    56    59    1
   62    59    60    1
   63    59    61    1
   64    59    62    1
   65    62    63    1
   66    64    65    1
   67    64    66    1
   68    64    67    1
   69    67    68    1
   70    67    69    1
   71    69    70    1
   72    67    71    1
   73    71    72    1
   74    71    73    1
   75    73    74    1
   76    45    75    1
   77    71    75    1
   78    75    76    1
   79    75    77    1
   80    77    78    1
   81    64    79    1
   82    77    79    1
   83    77    80    1
   84    80    81    1
   85    80    82    1
   86    80    83    1
   87    83    84    1
   88    85    86    1
   89    85    87    1
   90    85    88    1
   91    88    89    1
   92    88    90    1
   93    90    91    1
   94    88    92    1
   95    92    93    1
   96    92    94    1
   97    94    95    1
   98    66    96    1
   99    92    96    1
  100    96    97    1
  101    96    98    1
  102    98    99    1
  103    85   100    1
  104    98   100    1
  105    98   101    1
  106   101   102    1
  107   101   103    1
  108   101   104    1
  109   104   105    1
  110   106   107    1
  111    12   108    1
  112   106   108    1
  113   106   109    1
  114   109   110    1
  115   109   111    1
  116   111   112    1
  117   109   113    1
  118   113   114    1
  119   113   115    1
  120   115   116    1
  121    87   117    1
  122   113   117    1
  123   117   118    1
  124   117   119    1
  125   119   120    1
  126   106   121    1
  127   119   121    1
  128   119   122    1
  129   122   123    1
  130   122   124    1
  131   122   125    1
  132   125   126    1
  133   127   128    1
  134   127   129    1
  135   127   130    1
  136   130   131    1
  137   130   132    1
  138   130   133    1
  139   133   134    1
  140   133   135    1
  141   133   136    1
  142   136   137    1
  143   136   138    1
  144   136   139    1
  145   139   140    1
  146   139   141    1
  147   141   142    1
  148   141   143    1
  149   127   144    1
  150   141   144    1
  151   144   145    1
  152   144   146    1
  153   139   147    1
  154   147   148    1
@<TRIPOS>SUBSTRUCTURE
       1 MOL1            1 RESIDUE      1      MOL     
       2 MOL1          148 RESIDUE      1      MOL     
@<SCITEGIC>MOL_PROPERTY
VM2 Rank
SciTegic.value.IntegerValue
1

@<SCITEGIC>MOL_PROPERTY
Conf_Id
SciTegic.value.IntegerValue
7969

@<SCITEGIC>MOL_PROPERTY
Probability
SciTegic.value.DoubleValue
1.52

@<SCITEGIC>MOL_PROPERTY
Sum Probability
SciTegic.value.DoubleValue
1.52

@<SCITEGIC>MOL_PROPERTY
Delta G
SciTegic.value.DoubleValue
0.000

@<SCITEGIC>MOL_PROPERTY
G
SciTegic.value.DoubleValue
566.048

@<SCITEGIC>MOL_PROPERTY
E
SciTegic.value.DoubleValue
371.171

@<SCITEGIC>MOL_PROPERTY
-TS
SciTegic.value.DoubleValue
194.878

@<SCITEGIC>MOL_PROPERTY
U+W
SciTegic.value.DoubleValue
240.611

@<SCITEGIC>MOL_PROPERTY
U
SciTegic.value.DoubleValue
272.154

@<SCITEGIC>MOL_PROPERTY
W
SciTegic.value.DoubleValue
-31.543

@<SCITEGIC>MOL_PROPERTY
W(PB)
SciTegic.value.DoubleValue
-37.712

@<SCITEGIC>MOL_PROPERTY
W(SA)
SciTegic.value.DoubleValue
6.169

@<SCITEGIC>MOL_PROPERTY
Valence
SciTegic.value.DoubleValue
158.489

@<SCITEGIC>MOL_PROPERTY
Coulomb
SciTegic.value.DoubleValue
140.472

@<SCITEGIC>MOL_PROPERTY
VdW
SciTegic.value.DoubleValue
-26.806

@<SCITEGIC>MOL_PROPERTY
VdW6
SciTegic.value.DoubleValue
-179.154

@<SCITEGIC>MOL_PROPERTY
VdW12
SciTegic.value.DoubleValue
152.347

@<SCITEGIC>MOL_PROPERTY
Bond
SciTegic.value.DoubleValue
4.325

@<SCITEGIC>MOL_PROPERTY
Angle
SciTegic.value.DoubleValue
12.019

@<SCITEGIC>MOL_PROPERTY
Pdih
SciTegic.value.DoubleValue
142.144

@<SCITEGIC>MOL_PROPERTY
Idih
SciTegic.value.DoubleValue
0.000

@<SCITEGIC>MOL_PROPERTY
Tether
SciTegic.value.DoubleValue
0.000

@<TRIPOS>MOLECULE
CD_guest-5_vm2_single.mol2 : vm2 host+ligand conformer 2
         148         154           2
SMALL
USER_CHARGES
 
@<TRIPOS>ATOM
       1    C1      16.227162   15.157639   21.618363 C.3        1 MOL1         0.2972
       2    H1      15.142881   14.989279   21.591728 H          1 MOL1         0.0751
       3    O1      16.556139   16.545266   21.417164 O.3        1 MOL1        -0.3740
       4    C2      16.803539   14.704390   22.983978 C.3        1 MOL1         0.1003
       5    H2      16.602132   13.630103   23.085655 H          1 MOL1         0.0783
       6    O2      16.179992   15.403608   24.072557 O.3        1 MOL1        -0.5519
       7    H3      15.659409   16.148530   23.682148 H          1 MOL1         0.3769
       8    C3      18.334678   14.908526   23.022066 C.3        1 MOL1         0.1053
       9    H4      18.526865   15.986226   22.979206 H          1 MOL1         0.0783
      10    O3      18.859628   14.367069   24.237649 O.3        1 MOL1        -0.5519
      11    H5      18.250712   14.691965   24.938095 H          1 MOL1         0.3769
      12    C4      19.023582   14.243525   21.806930 C.3        1 MOL1         0.1018
      13    H6      19.002018   13.155812   21.954762 H          1 MOL1         0.0783
      14    C5      18.322376   14.601225   20.466562 C.3        1 MOL1         0.1043
      15    H7      18.531729   15.655105   20.238311 H          1 MOL1         0.0783
      16    O4      16.889270   14.395919   20.585652 O.3        1 MOL1        -0.3740
      17    C6      18.812529   13.751126   19.273555 C.3        1 MOL1         0.0138
      18    H8      19.878905   13.947436   19.104353 H          1 MOL1         0.0794
      19    H9      18.275503   14.069159   18.369999 H          1 MOL1         0.0794
      20    O5      18.597926   12.356866   19.512923 O.3        1 MOL1        -0.5486
      21    H10     17.637971   12.256113   19.699224 H          1 MOL1         0.3769
      22    C7      14.810888   20.237583   20.590582 C.3        1 MOL1         0.2972
      23    H11     14.152543   21.038832   20.231149 H          1 MOL1         0.0751
      24    O6      16.035084   20.757415   21.143411 O.3        1 MOL1        -0.3740
      25    C8      14.110418   19.417034   21.702719 C.3        1 MOL1         0.1003
      26    H12     13.185429   19.007552   21.276476 H          1 MOL1         0.0783
      27    O7      13.784511   20.254203   22.824364 O.3        1 MOL1        -0.5519
      28    H13     14.552593   20.862220   22.971381 H          1 MOL1         0.3769
      29    C9      14.994299   18.228544   22.156634 C.3        1 MOL1         0.1053
      30    H14     15.870575   18.637148   22.675880 H          1 MOL1         0.0783
      31    O8      14.247308   17.399148   23.051161 O.3        1 MOL1        -0.5519
      32    H15     13.794746   18.025480   23.660000 H          1 MOL1         0.3769
      33    C10     15.494235   17.396336   20.947198 C.3        1 MOL1         0.1018
      34    H16     14.660397   16.816307   20.529663 H          1 MOL1         0.0783
      35    C11     16.086105   18.289371   19.826598 C.3        1 MOL1         0.1043
      36    H17     17.037861   18.717408   20.168179 H          1 MOL1         0.0783
      37    O9      15.137519   19.337140   19.511072 O.3        1 MOL1        -0.3740
      38    C12     16.343382   17.493995   18.529678 C.3        1 MOL1         0.0138
      39    H18     15.393836   17.082231   18.162444 H          1 MOL1         0.0794
      40    H19     17.010088   16.650080   18.747689 H          1 MOL1         0.0794
      41    O10     16.935832   18.341638   17.543674 O.3        1 MOL1        -0.5486
      42    H20     16.339611   19.118168   17.462586 H          1 MOL1         0.3769
      43    C13     18.386836   24.160684   21.293155 C.3        1 MOL1         0.2972
      44    H21     18.810662   25.172206   21.244656 H          1 MOL1         0.0751
      45    O11     19.404402   23.163015   21.511934 O.3        1 MOL1        -0.3740
      46    C14     17.339468   24.046862   22.430037 C.3        1 MOL1         0.1003
      47    H22     16.524448   24.745203   22.199684 H          1 MOL1         0.0783
      48    O12     17.908014   24.391406   23.703204 O.3        1 MOL1        -0.5519
      49    H23     18.725617   23.844328   23.823077 H          1 MOL1         0.3769
      50    C15     16.750499   22.616777   22.467026 C.3        1 MOL1         0.1053
      51    H24     17.561234   21.933665   22.745098 H          1 MOL1         0.0783
      52    O13     15.699807   22.548133   23.436972 O.3        1 MOL1        -0.5519
      53    H25     16.051623   23.012153   24.228827 H          1 MOL1         0.3769
      54    C16     16.212816   22.185815   21.080075 C.3        1 MOL1         0.1018
      55    H26     15.264694   22.710294   20.902746 H          1 MOL1         0.0783
      56    C17     17.212946   22.493156   19.929066 C.3        1 MOL1         0.1043
      57    H27     18.047755   21.782350   19.994811 H          1 MOL1         0.0783
      58    O14     17.714040   23.847577   20.055443 O.3        1 MOL1        -0.3740
      59    C18     16.592193   22.362826   18.520345 C.3        1 MOL1         0.0138
      60    H28     16.303056   21.318940   18.349075 H          1 MOL1         0.0794
      61    H29     17.357277   22.614027   17.773652 H          1 MOL1         0.0794
      62    O15     15.456414   23.220542   18.374150 O.3        1 MOL1        -0.5486
      63    H30     15.773956   24.131074   18.564997 H          1 MOL1         0.3769
      64    C19     23.452456   22.618171   22.036928 C.3        1 MOL1         0.2972
      65    H31     24.530513   22.707764   22.219433 H          1 MOL1         0.0751
      66    O16     23.108930   21.333025   21.479193 O.3        1 MOL1        -0.3740
      67    C20     22.665688   22.803097   23.358139 C.3        1 MOL1         0.1003
      68    H32     22.890663   23.810256   23.732446 H          1 MOL1         0.0783
      69    O17     23.066104   21.832993   24.340008 O.3        1 MOL1        -0.5519
      70    H33     23.932036   21.463849   24.044319 H          1 MOL1         0.3769
      71    C21     21.142519   22.709907   23.101463 C.3        1 MOL1         0.1053
      72    H34     20.913219   21.678107   22.814172 H          1 MOL1         0.0783
      73    O18     20.439227   23.037838   24.302975 O.3        1 MOL1        -0.5519
      74    H35     20.902562   22.530520   25.006625 H          1 MOL1         0.3769
      75    C22     20.691409   23.640879   21.947118 C.3        1 MOL1         0.1018
      76    H36     20.641475   24.669079   22.329618 H          1 MOL1         0.0783
      77    C23     21.632308   23.574477   20.710502 C.3        1 MOL1         0.1043
      78    H37     21.454956   22.621232   20.195925 H          1 MOL1         0.0783
      79    O19     23.017718   23.648106   21.125198 O.3        1 MOL1        -0.3740
      80    C24     21.385793   24.708115   19.690052 C.3        1 MOL1         0.0138
      81    H38     20.376385   24.600831   19.271357 H          1 MOL1         0.0794
      82    H39     22.096478   24.596284   18.860160 H          1 MOL1         0.0794
      83    O20     21.532593   25.993926   20.299991 O.3        1 MOL1        -0.5486
      84    H40     22.442202   26.019412   20.672288 H          1 MOL1         0.3769
      85    C25     24.960885   17.678643   20.731160 C.3        1 MOL1         0.2972
      86    H41     25.617889   16.872748   20.379503 H          1 MOL1         0.0751
      87    O21     23.770243   17.164472   21.354045 O.3        1 MOL1        -0.3740
      88    C26     25.686027   18.556423   21.781991 C.3        1 MOL1         0.1003
      89    H42     26.587140   18.964554   21.306203 H          1 MOL1         0.0783
      90    O22     26.063963   17.765433   22.921176 O.3        1 MOL1        -0.5519
      91    H43     25.293552   17.182159   23.137983 H          1 MOL1         0.3769
      92    C27     24.798533   19.745960   22.230364 C.3        1 MOL1         0.1053
      93    H44     23.962028   19.337638   22.805360 H          1 MOL1         0.0783
      94    O23     25.567917   20.609919   23.074248 O.3        1 MOL1        -0.5519
      95    H45     26.083907   20.003601   23.652835 H          1 MOL1         0.3769
      96    C28     24.207233   20.520988   21.017833 C.3        1 MOL1         0.1018
      97    H46     24.988511   21.136225   20.552265 H          1 MOL1         0.0783
      98    C29     23.613440   19.563348   19.949750 C.3        1 MOL1         0.1043
      99    H47     22.695735   19.113026   20.352851 H          1 MOL1         0.0783
     100    O24     24.573847   18.527781   19.632016 O.3        1 MOL1        -0.3740
     101    C30     23.247102   20.277951   18.630084 C.3        1 MOL1         0.0138
     102    H48     22.499758   21.054477   18.837134 H          1 MOL1         0.0794
     103    H49     22.783596   19.548366   17.952737 H          1 MOL1         0.0794
     104    O25     24.403866   20.856484   18.018484 O.3        1 MOL1        -0.5486
     105    H50     25.062491   20.130261   17.944796 H          1 MOL1         0.3769
     106    C31     21.419753   13.771286   21.633992 C.3        1 MOL1         0.2972
     107    H51     21.021916   12.748670   21.648613 H          1 MOL1         0.0751
     108    O26     20.371749   14.757628   21.761829 O.3        1 MOL1        -0.3740
     109    C32     22.416202   13.975022   22.802120 C.3        1 MOL1         0.1003
     110    H52     23.233785   13.254655   22.669670 H          1 MOL1         0.0783
     111    O27     21.779838   13.739583   24.068896 O.3        1 MOL1        -0.5519
     112    H53     20.859214   14.101035   24.014386 H          1 MOL1         0.3769
     113    C33     23.021886   15.397008   22.756395 C.3        1 MOL1         0.1053
     114    H54     22.214325   16.106406   22.960440 H          1 MOL1         0.0783
     115    O28     24.042414   15.523542   23.752955 O.3        1 MOL1        -0.5519
     116    H55     23.653519   15.130463   24.565403 H          1 MOL1         0.3769
     117    C34     23.605015   15.734422   21.363672 C.3        1 MOL1         0.1018
     118    H56     24.563839   15.210660   21.255570 H          1 MOL1         0.0783
     119    C35     22.645732   15.345377   20.201384 C.3        1 MOL1         0.1043
     120    H57     21.809733   16.055315   20.182999 H          1 MOL1         0.0783
     121    O29     22.137664   14.004110   20.404201 O.3        1 MOL1        -0.3740
     122    C36     23.315213   15.372627   18.809197 C.3        1 MOL1         0.0138
     123    H58     23.606885   16.401962   18.567153 H          1 MOL1         0.0794
     124    H59     22.576837   15.061074   18.058413 H          1 MOL1         0.0794
     125    O30     24.456893   14.511100   18.767743 O.3        1 MOL1        -0.5486
     126    H60     24.134115   13.617376   19.019660 H          1 MOL1         0.3769
     127    C1      18.321320   18.556290   25.127636 C.3        1 MOL1        -0.1685
     128    H1      17.708988   18.930961   25.958775 H          1 MOL1         0.0832
     129    H2      17.805618   17.661521   24.754638 H          1 MOL1         0.0832
     130    C2      19.702947   18.167153   25.692241 C.3        1 MOL1        -0.1685
     131    H3      20.153430   19.037576   26.188180 H          1 MOL1         0.0832
     132    H4      19.555610   17.412836   26.476785 H          1 MOL1         0.0832
     133    C3      20.689676   17.603057   24.648666 C.3        1 MOL1        -0.1685
     134    H5      20.258341   16.736511   24.139298 H          1 MOL1         0.0832
     135    H6      21.567009   17.226358   25.191689 H          1 MOL1         0.0832
     136    C4      21.177002   18.657568   23.627603 C.3        1 MOL1        -0.1761
     137    H7      21.336291   19.615479   24.138017 H          1 MOL1         0.0832
     138    H8      22.164331   18.351592   23.271267 H          1 MOL1         0.0832
     139    C5      20.285273   18.879709   22.384780 C.3        1 MOL1         0.1218
     140    H9      20.660664   19.780976   21.882512 H          1 MOL1         0.0789
     141    C6      18.774654   19.086462   22.640217 C.3        1 MOL1        -0.1761
     142    H10     18.413491   19.778415   21.870484 H          1 MOL1         0.0832
     143    H11     18.238756   18.149803   22.464304 H          1 MOL1         0.0832
     144    C7      18.362131   19.638548   24.025875 C.3        1 MOL1        -0.1685
     145    H12     19.002595   20.479744   24.322385 H          1 MOL1         0.0832
     146    H13     17.346309   20.044414   23.937213 H          1 MOL1         0.0832
     147    O1      20.447001   17.786538   21.490937 O.3        1 MOL1        -0.5509
     148    H14     20.278540   16.971798   22.004416 H          1 MOL1         0.3779
@<TRIPOS>BOND
    1     1     2    1
    2     1     3    1
    3     1     4    1
    4     4     5    1
    5     4     6    1
    6     6     7    1
    7     4     8    1
    8     8     9    1
    9     8    10    1
   10    10    11    1
   11     8    12    1
   12    12    13    1
   13    12    14    1
   14    14    15    1
   15     1    16    1
   16    14    16    1
   17    14    17    1
   18    17    18    1
   19    17    19    1
   20    17    20    1
   21    20    21    1
   22    22    23    1
   23    22    24    1
   24    22    25    1
   25    25    26    1
   26    25    27    1
   27    27    28    1
   28    25    29    1
   29    29    30    1
   30    29    31    1
   31    31    32    1
   32     3    33    1
   33    29    33    1
   34    33    34    1
   35    33    35    1
   36    35    36    1
   37    22    37    1
   38    35    37    1
   39    35    38    1
   40    38    39    1
   41    38    40    1
   42    38    41    1
   43    41    42    1
   44    43    44    1
   45    43    45    1
   46    43    46    1
   47    46    47    1
   48    46    48    1
   49    48    49    1
   50    46    50    1
   51    50    51    1
   52    50    52    1
   53    52    53    1
   54    24    54    1
   55    50    54    1
   56    54    55    1
   57    54    56    1
   58    56    57    1
   59    43    58    1
   60    56    58    1
   61    56    59    1
   62    59    60    1
   63    59    61    1
   64    59    62    1
   65    62    63    1
   66    64    65    1
   67    64    66    1
   68    64    67    1
   69    67    68    1
   70    67    69    1
   71    69    70    1
   72    67    71    1
   73    71    72    1
   74    71    73    1
   75    73    74    1
   76    45    75    1
   77    71    75    1
   78    75    76    1
   79    75    77    1
   80    77    78    1
   81    64    79    1
   82    77    79    1
   83    77    80    1
   84    80    81    1
   85    80    82    1
   86    80    83    1
   87    83    84    1
   88    85    86    1
   89    85    87    1
   90    85    88    1
   91    88    89    1
   92    88    90    1
   93    90    91    1
   94    88    92    1
   95    92    93    1
   96    92    94    1
   97    94    95    1
   98    66    96    1
   99    92    96    1
  100    96    97    1
  101    96    98    1
  102    98    99    1
  103    85   100    1
  104    98   100    1
  105    98   101    1
  106   101   102    1
  107   101   103    1
  108   101   104    1
  109   104   105    1
  110   106   107    1
  111    12   108    1
  112   106   108    1
  113   106   109    1
  114   109   110    1
  115   109   111    1
  116   111   112    1
  117   109   113    1
  118   113   114    1
  119   113   115    1
  120   115   116    1
  121    87   117    1
  122   113   117    1
  123   117   118    1
  124   117   119    1
  125   119   120    1
  126   106   121    1
  127   119   121    1
  128   119   122    1
  129   122   123    1
  130   122   124    1
  131   122   125    1
  132   125   126    1
  133   127   128    1
  134   127   129    1
  135   127   130    1
  136   130   131    1
  137   130   132    1
  138   130   133    1
  139   133   134    1
  140   133   135    1
  141   133   136    1
  142   136   137    1
  143   136   138    1
  144   136   139    1
  145   139   140    1
  146   139   141    1
  147   141   142    1
  148   141   143    1
  149   127   144    1
  150   141   144    1
  151   144   145    1
  152   144   146    1
  153   139   147    1
  154   147   148    1
@<TRIPOS>SUBSTRUCTURE
       1 MOL1            1 RESIDUE      1      MOL     
       2 MOL1          148 RESIDUE      1      MOL     
@<SCITEGIC>MOL_PROPERTY
VM2 Rank
SciTegic.value.IntegerValue
2

@<SCITEGIC>MOL_PROPERTY
Conf_Id
SciTegic.value.IntegerValue
3798

@<SCITEGIC>MOL_PROPERTY
Probability
SciTegic.value.DoubleValue
1.18

@<SCITEGIC>MOL_PROPERTY
Sum Probability
SciTegic.value.DoubleValue
2.71

@<SCITEGIC>MOL_PROPERTY
Delta G
SciTegic.value.DoubleValue
0.150

@<SCITEGIC>MOL_PROPERTY
G
SciTegic.value.DoubleValue
566.198

@<SCITEGIC>MOL_PROPERTY
E
SciTegic.value.DoubleValue
370.734

@<SCITEGIC>MOL_PROPERTY
-TS
SciTegic.value.DoubleValue
195.464

@<SCITEGIC>MOL_PROPERTY
U+W
SciTegic.value.DoubleValue
240.174

@<SCITEGIC>MOL_PROPERTY
U
SciTegic.value.DoubleValue
271.066

@<SCITEGIC>MOL_PROPERTY
W
SciTegic.value.DoubleValue
-30.892

@<SCITEGIC>MOL_PROPERTY
W(PB)
SciTegic.value.DoubleValue
-37.093

@<SCITEGIC>MOL_PROPERTY
W(SA)
SciTegic.value.DoubleValue
6.201

@<SCITEGIC>MOL_PROPERTY
Valence
SciTegic.value.DoubleValue
158.035

@<SCITEGIC>MOL_PROPERTY
Coulomb
SciTegic.value.DoubleValue
139.830

@<SCITEGIC>MOL_PROPERTY
VdW
SciTegic.value.DoubleValue
-26.799

@<SCITEGIC>MOL_PROPERTY
VdW6
SciTegic.value.DoubleValue
-179.700

@<SCITEGIC>MOL_PROPERTY
VdW12
SciTegic.value.DoubleValue
152.902

@<SCITEGIC>MOL_PROPERTY
Bond
SciTegic.value.DoubleValue
4.333

@<SCITEGIC>MOL_PROPERTY
Angle
SciTegic.value.DoubleValue
11.998

@<SCITEGIC>MOL_PROPERTY
Pdih
SciTegic.value.DoubleValue
141.704

@<SCITEGIC>MOL_PROPERTY
Idih
SciTegic.value.DoubleValue
0.000

@<SCITEGIC>MOL_PROPERTY
Tether
SciTegic.value.DoubleValue
0.000

@<TRIPOS>MOLECULE
CD_guest-5_vm2_single.mol2 : vm2 host+ligand conformer 3
         148         154           2
SMALL
USER_CHARGES
 
@<TRIPOS>ATOM
       1    C1      16.172471   15.055390   21.274350 C.3        1 MOL1         0.2972
       2    H1      15.093040   14.867111   21.209979 H          1 MOL1         0.0751
       3    O1      16.461184   16.442486   21.534295 O.3        1 MOL1        -0.3740
       4    C2      16.813479   14.212342   22.406699 C.3        1 MOL1         0.1003
       5    H2      16.644078   13.155013   22.165181 H          1 MOL1         0.0783
       6    O2      16.209828   14.506596   23.676493 O.3        1 MOL1        -0.5519
       7    H3      16.149523   15.492653   23.757036 H          1 MOL1         0.3769
       8    C3      18.342820   14.448553   22.465437 C.3        1 MOL1         0.1053
       9    H4      18.514420   15.482024   22.786413 H          1 MOL1         0.0783
      10    O3      18.933603   13.548492   23.408692 O.3        1 MOL1        -0.5519
      11    H5      18.357257   13.597811   24.203496 H          1 MOL1         0.3769
      12    C4      19.000273   14.256616   21.076535 C.3        1 MOL1         0.1018
      13    H6      19.039532   13.180142   20.863983 H          1 MOL1         0.0783
      14    C5      18.229068   14.989604   19.942839 C.3        1 MOL1         0.1043
      15    H7      18.386572   16.070722   20.056387 H          1 MOL1         0.0783
      16    O4      16.815202   14.687336   20.036144 O.3        1 MOL1        -0.3740
      17    C6      18.690913   14.591638   18.523263 C.3        1 MOL1         0.0138
      18    H8      19.731031   14.908953   18.380835 H          1 MOL1         0.0794
      19    H9      18.082302   15.136383   17.789182 H          1 MOL1         0.0794
      20    O5      18.571734   13.180862   18.316942 O.3        1 MOL1        -0.5486
      21    H10     17.629555   12.957743   18.486757 H          1 MOL1         0.3769
      22    C7      14.788946   20.205809   21.832601 C.3        1 MOL1         0.2972
      23    H11     14.142626   21.086788   21.937378 H          1 MOL1         0.0751
      24    O6      16.145951   20.581352   21.515157 O.3        1 MOL1        -0.3740
      25    C8      14.773480   19.381183   23.144320 C.3        1 MOL1         0.1003
      26    H12     13.746812   19.021443   23.290424 H          1 MOL1         0.0783
      27    O7      15.149095   20.178948   24.275463 O.3        1 MOL1        -0.5519
      28    H13     16.096696   20.434652   24.143957 H          1 MOL1         0.3769
      29    C9      15.697663   18.151348   23.013865 C.3        1 MOL1         0.1053
      30    H14     16.721349   18.516854   22.877883 H          1 MOL1         0.0783
      31    O8      15.613482   17.355596   24.200510 O.3        1 MOL1        -0.5519
      32    H15     15.613331   18.004079   24.939282 H          1 MOL1         0.3769
      33    C10     15.331454   17.303609   21.774333 C.3        1 MOL1         0.1018
      34    H16     14.416505   16.737856   21.994535 H          1 MOL1         0.0783
      35    C11     15.135440   18.171892   20.499210 C.3        1 MOL1         0.1043
      36    H17     16.129252   18.496621   20.167258 H          1 MOL1         0.0783
      37    O9      14.311244   19.335453   20.782234 O.3        1 MOL1        -0.3740
      38    C12     14.476761   17.402989   19.332626 C.3        1 MOL1         0.0138
      39    H18     15.133821   16.577443   19.029069 H          1 MOL1         0.0794
      40    H19     14.382963   18.078791   18.472084 H          1 MOL1         0.0794
      41    O10     13.192436   16.898345   19.709944 O.3        1 MOL1        -0.5486
      42    H20     12.666040   17.676218   20.000544 H          1 MOL1         0.3769
      43    C13     18.500353   23.818349   20.486025 C.3        1 MOL1         0.2972
      44    H21     18.924802   24.738090   20.062929 H          1 MOL1         0.0751
      45    O11     19.501129   23.032951   21.164393 O.3        1 MOL1        -0.3740
      46    C14     17.377034   24.155598   21.495572 C.3        1 MOL1         0.1003
      47    H22     16.623733   24.743949   20.955784 H          1 MOL1         0.0783
      48    O12     17.891362   24.937216   22.586693 O.3        1 MOL1        -0.5519
      49    H23     18.723783   24.499480   22.897982 H          1 MOL1         0.3769
      50    C15     16.684458   22.875606   22.027623 C.3        1 MOL1         0.1053
      51    H24     17.381636   22.371981   22.708421 H          1 MOL1         0.0783
      52    O13     15.505174   23.258865   22.741085 O.3        1 MOL1        -0.5519
      53    H25     15.801876   23.931398   23.392127 H          1 MOL1         0.3769
      54    C16     16.316349   21.874364   20.897141 C.3        1 MOL1         0.1018
      55    H26     15.396867   22.207592   20.397339 H          1 MOL1         0.0783
      56    C17     17.430659   21.718541   19.827259 C.3        1 MOL1         0.1043
      57    H27     18.245853   21.110887   20.240700 H          1 MOL1         0.0783
      58    O14     17.919827   23.021951   19.436726 O.3        1 MOL1        -0.3740
      59    C18     16.908156   21.041779   18.542792 C.3        1 MOL1         0.0138
      60    H28     16.163799   21.694952   18.067848 H          1 MOL1         0.0794
      61    H29     16.405691   20.103157   18.799420 H          1 MOL1         0.0794
      62    O15     17.991456   20.784663   17.647779 O.3        1 MOL1        -0.5486
      63    H30     18.452622   21.643606   17.525935 H          1 MOL1         0.3769
      64    C19     23.622281   22.907439   21.692133 C.3        1 MOL1         0.2972
      65    H31     24.696940   23.121145   21.756912 H          1 MOL1         0.0751
      66    O16     23.343899   21.498418   21.806752 O.3        1 MOL1        -0.3740
      67    C20     22.840577   23.640445   22.812164 C.3        1 MOL1         0.1003
      68    H32     22.983190   24.718754   22.663988 H          1 MOL1         0.0783
      69    O17     23.326826   23.277391   24.114036 O.3        1 MOL1        -0.5519
      70    H33     23.437878   22.292990   24.131228 H          1 MOL1         0.3769
      71    C21     21.327908   23.337108   22.693147 C.3        1 MOL1         0.1053
      72    H34     21.186411   22.267741   22.885351 H          1 MOL1         0.0783
      73    O18     20.602286   24.109533   23.655323 O.3        1 MOL1        -0.5519
      74    H35     21.119167   24.030185   24.487604 H          1 MOL1         0.3769
      75    C22     20.803080   23.643944   21.270082 C.3        1 MOL1         0.1018
      76    H36     20.750978   24.735122   21.157865 H          1 MOL1         0.0783
      77    C23     21.710835   23.040596   20.159881 C.3        1 MOL1         0.1043
      78    H37     21.579227   21.950149   20.157916 H          1 MOL1         0.0783
      79    O19     23.098293   23.365055   20.427313 O.3        1 MOL1        -0.3740
      80    C24     21.382821   23.556898   18.740839 C.3        1 MOL1         0.0138
      81    H38     20.379414   23.216095   18.456267 H          1 MOL1         0.0794
      82    H39     22.090569   23.109124   18.030446 H          1 MOL1         0.0794
      83    O20     21.455458   24.984480   18.679927 O.3        1 MOL1        -0.5486
      84    H40     22.366925   25.225548   18.958225 H          1 MOL1         0.3769
      85    C25     24.986635   17.740802   22.048342 C.3        1 MOL1         0.2972
      86    H41     25.613767   16.845773   22.150981 H          1 MOL1         0.0751
      87    O21     23.666880   17.415728   21.564963 O.3        1 MOL1        -0.3740
      88    C26     24.857569   18.462496   23.412131 C.3        1 MOL1         0.1003
      89    H42     25.865295   18.781479   23.708543 H          1 MOL1         0.0783
      90    O22     24.325664   17.591775   24.423078 O.3        1 MOL1        -0.5519
      91    H43     24.206159   16.702725   24.008658 H          1 MOL1         0.3769
      92    C27     23.976418   19.723744   23.273337 C.3        1 MOL1         0.1053
      93    H44     22.953762   19.398005   23.044834 H          1 MOL1         0.0783
      94    O23     23.993495   20.444028   24.508614 O.3        1 MOL1        -0.5519
      95    H45     23.865282   19.753373   25.197257 H          1 MOL1         0.3769
      96    C28     24.455322   20.638371   22.119510 C.3        1 MOL1         0.1018
      97    H46     25.333419   21.201815   22.461868 H          1 MOL1         0.0783
      98    C29     24.795782   19.853129   20.820711 C.3        1 MOL1         0.1043
      99    H47     23.851610   19.549585   20.350032 H          1 MOL1         0.0783
     100    O24     25.585402   18.674634   21.124920 O.3        1 MOL1        -0.3740
     101    C30     25.582099   20.694706   19.791216 C.3        1 MOL1         0.0138
     102    H48     24.963281   21.544699   19.474456 H          1 MOL1         0.0794
     103    H49     25.771372   20.078739   18.901944 H          1 MOL1         0.0794
     104    O25     26.816425   21.162073   20.343231 O.3        1 MOL1        -0.5486
     105    H50     27.305040   20.362078   20.639818 H          1 MOL1         0.3769
     106    C31     21.393096   14.057004   20.609498 C.3        1 MOL1         0.2972
     107    H51     21.041319   13.095201   20.214753 H          1 MOL1         0.0751
     108    O26     20.315818   14.837239   21.163866 O.3        1 MOL1        -0.3740
     109    C32     22.435853   13.834651   21.732971 C.3        1 MOL1         0.1003
     110    H52     23.267716   13.263451   21.300804 H          1 MOL1         0.0783
     111    O27     21.865686   13.088385   22.820516 O.3        1 MOL1        -0.5519
     112    H53     20.949213   13.434566   22.968545 H          1 MOL1         0.3769
     113    C33     22.997850   15.185277   22.241696 C.3        1 MOL1         0.1053
     114    H54     22.186653   15.718149   22.752790 H          1 MOL1         0.0783
     115    O28     24.064590   14.929090   23.160773 O.3        1 MOL1        -0.5519
     116    H55     23.744195   14.182882   23.716948 H          1 MOL1         0.3769
     117    C34     23.486909   16.076000   21.068071 C.3        1 MOL1         0.1018
     118    H56     24.421505   15.670188   20.658067 H          1 MOL1         0.0783
     119    C35     22.442000   16.161302   19.925858 C.3        1 MOL1         0.1043
     120    H57     21.582804   16.755051   20.266093 H          1 MOL1         0.0783
     121    O29     22.026651   14.822633   19.563787 O.3        1 MOL1        -0.3740
     122    C36     23.025230   16.820445   18.658487 C.3        1 MOL1         0.0138
     123    H58     23.861533   16.213589   18.286352 H          1 MOL1         0.0794
     124    H59     23.420950   17.811573   18.913809 H          1 MOL1         0.0794
     125    O30     22.011877   16.942862   17.658790 O.3        1 MOL1        -0.5486
     126    H60     21.641837   16.040899   17.537292 H          1 MOL1         0.3769
     127    C1      19.965691   17.972770   25.645249 C.3        1 MOL1        -0.1685
     128    H1      20.368258   17.294349   26.409734 H          1 MOL1         0.0832
     129    H2      18.886765   17.771001   25.626748 H          1 MOL1         0.0832
     130    C2      20.581051   17.592153   24.280922 C.3        1 MOL1        -0.1685
     131    H3      21.598490   17.989224   24.188540 H          1 MOL1         0.0832
     132    H4      20.677186   16.498673   24.258062 H          1 MOL1         0.0832
     133    C3      19.708400   18.007537   23.073971 C.3        1 MOL1        -0.1685
     134    H5      18.684341   17.655234   23.237244 H          1 MOL1         0.0832
     135    H6      20.068419   17.472274   22.185409 H          1 MOL1         0.0832
     136    C4      19.686636   19.520376   22.742530 C.3        1 MOL1        -0.1761
     137    H7      20.672580   19.817595   22.363422 H          1 MOL1         0.0832
     138    H8      18.990339   19.677967   21.909883 H          1 MOL1         0.0832
     139    C5      19.285453   20.476908   23.888131 C.3        1 MOL1         0.1218
     140    H9      19.223447   21.484322   23.457709 H          1 MOL1         0.0789
     141    C6      20.330956   20.521650   25.023040 C.3        1 MOL1        -0.1761
     142    H10     21.330347   20.492479   24.576158 H          1 MOL1         0.0832
     143    H11     20.263095   21.501093   25.513599 H          1 MOL1         0.0832
     144    C7      20.234270   19.424300   26.117130 C.3        1 MOL1        -0.1685
     145    H12     21.176200   19.437371   26.682061 H          1 MOL1         0.0832
     146    H13     19.455469   19.704309   26.839567 H          1 MOL1         0.0832
     147    O1      18.017494   20.124177   24.409229 O.3        1 MOL1        -0.5509
     148    H14     18.204943   19.304195   24.907104 H          1 MOL1         0.3779
@<TRIPOS>BOND
    1     1     2    1
    2     1     3    1
    3     1     4    1
    4     4     5    1
    5     4     6    1
    6     6     7    1
    7     4     8    1
    8     8     9    1
    9     8    10    1
   10    10    11    1
   11     8    12    1
   12    12    13    1
   13    12    14    1
   14    14    15    1
   15     1    16    1
   16    14    16    1
   17    14    17    1
   18    17    18    1
   19    17    19    1
   20    17    20    1
   21    20    21    1
   22    22    23    1
   23    22    24    1
   24    22    25    1
   25    25    26    1
   26    25    27    1
   27    27    28    1
   28    25    29    1
   29    29    30    1
   30    29    31    1
   31    31    32    1
   32     3    33    1
   33    29    33    1
   34    33    34    1
   35    33    35    1
   36    35    36    1
   37    22    37    1
   38    35    37    1
   39    35    38    1
   40    38    39    1
   41    38    40    1
   42    38    41    1
   43    41    42    1
   44    43    44    1
   45    43    45    1
   46    43    46    1
   47    46    47    1
   48    46    48    1
   49    48    49    1
   50    46    50    1
   51    50    51    1
   52    50    52    1
   53    52    53    1
   54    24    54    1
   55    50    54    1
   56    54    55    1
   57    54    56    1
   58    56    57    1
   59    43    58    1
   60    56    58    1
   61    56    59    1
   62    59    60    1
   63    59    61    1
   64    59    62    1
   65    62    63    1
   66    64    65    1
   67    64    66    1
   68    64    67    1
   69    67    68    1
   70    67    69    1
   71    69    70    1
   72    67    71    1
   73    71    72    1
   74    71    73    1
   75    73    74    1
   76    45    75    1
   77    71    75    1
   78    75    76    1
   79    75    77    1
   80    77    78    1
   81    64    79    1
   82    77    79    1
   83    77    80    1
   84    80    81    1
   85    80    82    1
   86    80    83    1
   87    83    84    1
   88    85    86    1
   89    85    87    1
   90    85    88    1
   91    88    89    1
   92    88    90    1
   93    90    91    1
   94    88    92    1
   95    92    93    1
   96    92    94    1
   97    94    95    1
   98    66    96    1
   99    92    96    1
  100    96    97    1
  101    96    98    1
  102    98    99    1
  103    85   100    1
  104    98   100    1
  105    98   101    1
  106   101   102    1
  107   101   103    1
  108   101   104    1
  109   104   105    1
  110   106   107    1
  111    12   108    1
  112   106   108    1
  113   106   109    1
  114   109   110    1
  115   109   111    1
  116   111   112    1
  117   109   113    1
  118   113   114    1
  119   113   115    1
  120   115   116    1
  121    87   117    1
  122   113   117    1
  123   117   118    1
  124   117   119    1
  125   119   120    1
  126   106   121    1
  127   119   121    1
  128   119   122    1
  129   122   123    1
  130   122   124    1
  131   122   125    1
  132   125   126    1
  133   127   128    1
  134   127   129    1
  135   127   130    1
  136   130   131    1
  137   130   132    1
  138   130   133    1
  139   133   134    1
  140   133   135    1
  141   133   136    1
  142   136   137    1
  143   136   138    1
  144   136   139    1
  145   139   140    1
  146   139   141    1
  147   141   142    1
  148   141   143    1
  149   127   144    1
  150   141   144    1
  151   144   145    1
  152   144   146    1
  153   139   147    1
  154   147   148    1
@<TRIPOS>SUBSTRUCTURE
       1 MOL1            1 RESIDUE      1      MOL     
       2 MOL1          148 RESIDUE      1      MOL     
@<SCITEGIC>MOL_PROPERTY
VM2 Rank
SciTegic.value.IntegerValue
3

@<SCITEGIC>MOL_PROPERTY
Conf_Id
SciTegic.value.IntegerValue
5187

@<SCITEGIC>MOL_PROPERTY
Probability
SciTegic.value.DoubleValue
1.18

@<SCITEGIC>MOL_PROPERTY
Sum Probability
SciTegic.value.DoubleValue
3.89

@<SCITEGIC>MOL_PROPERTY
Delta G
SciTegic.value.DoubleValue
0.151

@<SCITEGIC>MOL_PROPERTY
G
SciTegic.value.DoubleValue
566.200

@<SCITEGIC>MOL_PROPERTY
E
SciTegic.value.DoubleValue
371.451

@<SCITEGIC>MOL_PROPERTY
-TS
SciTegic.value.DoubleValue
194.749

@<SCITEGIC>MOL_PROPERTY
U+W
SciTegic.value.DoubleValue
240.891

@<SCITEGIC>MOL_PROPERTY
U
SciTegic.value.DoubleValue
272.727

@<SCITEGIC>MOL_PROPERTY
W
SciTegic.value.DoubleValue
-31.835

@<SCITEGIC>MOL_PROPERTY
W(PB)
SciTegic.value.DoubleValue
-37.989

@<SCITEGIC>MOL_PROPERTY
W(SA)
SciTegic.value.DoubleValue
6.153

@<SCITEGIC>MOL_PROPERTY
Valence
SciTegic.value.DoubleValue
157.573

@<SCITEGIC>MOL_PROPERTY
Coulomb
SciTegic.value.DoubleValue
139.037

@<SCITEGIC>MOL_PROPERTY
VdW
SciTegic.value.DoubleValue
-23.883

@<SCITEGIC>MOL_PROPERTY
VdW6
SciTegic.value.DoubleValue
-175.027

@<SCITEGIC>MOL_PROPERTY
VdW12
SciTegic.value.DoubleValue
151.144

@<SCITEGIC>MOL_PROPERTY
Bond
SciTegic.value.DoubleValue
4.393

@<SCITEGIC>MOL_PROPERTY
Angle
SciTegic.value.DoubleValue
12.572

@<SCITEGIC>MOL_PROPERTY
Pdih
SciTegic.value.DoubleValue
140.609

@<SCITEGIC>MOL_PROPERTY
Idih
SciTegic.value.DoubleValue
0.000

@<SCITEGIC>MOL_PROPERTY
Tether
SciTegic.value.DoubleValue
0.000

@<TRIPOS>MOLECULE
CD_guest-5_vm2_single.mol2 : vm2 host+ligand conformer 4
         148         154           2
SMALL
USER_CHARGES
 
@<TRIPOS>ATOM
       1    C1      16.195908   15.154199   20.721803 C.3        1 MOL1         0.2972
       2    H1      15.166968   14.966258   20.390530 H          1 MOL1         0.0751
       3    O1      16.370436   16.506030   21.186839 O.3        1 MOL1        -0.3740
       4    C2      16.565803   14.201695   21.886302 C.3        1 MOL1         0.1003
       5    H2      16.453757   13.173489   21.518509 H          1 MOL1         0.0783
       6    O2      15.685776   14.402312   23.004358 O.3        1 MOL1        -0.5519
       7    H3      15.515073   15.375460   23.074306 H          1 MOL1         0.3769
       8    C3      18.040083   14.394469   22.318686 C.3        1 MOL1         0.1053
       9    H4      18.129277   15.386239   22.779282 H          1 MOL1         0.0783
      10    O3      18.386078   13.387618   23.273802 O.3        1 MOL1        -0.5519
      11    H5      17.619593   13.348100   23.889233 H          1 MOL1         0.3769
      12    C4      19.003552   14.335783   21.104759 C.3        1 MOL1         0.1018
      13    H6      19.093933   13.297856   20.757924 H          1 MOL1         0.0783
      14    C5      18.512328   15.217282   19.925846 C.3        1 MOL1         0.1043
      15    H7      18.622432   16.273432   20.205602 H          1 MOL1         0.0783
      16    O4      17.122328   14.920901   19.641293 O.3        1 MOL1        -0.3740
      17    C6      19.312805   14.985024   18.625203 C.3        1 MOL1         0.0138
      18    H8      20.371409   15.209616   18.808939 H          1 MOL1         0.0794
      19    H9      18.954599   15.687825   17.861113 H          1 MOL1         0.0794
      20    O5      19.167628   13.637726   18.166279 O.3        1 MOL1        -0.5486
      21    H10     18.199936   13.473717   18.109809 H          1 MOL1         0.3769
      22    C7      14.657923   20.282734   21.136189 C.3        1 MOL1         0.2972
      23    H11     14.003292   21.156885   21.024294 H          1 MOL1         0.0751
      24    O6      16.018666   20.665180   21.418062 O.3        1 MOL1        -0.3740
      25    C8      14.164155   19.357409   22.277071 C.3        1 MOL1         0.1003
      26    H12     13.156275   19.013808   22.010483 H          1 MOL1         0.0783
      27    O7      14.107066   20.056662   23.530493 O.3        1 MOL1        -0.5519
      28    H13     14.992155   20.477663   23.677571 H          1 MOL1         0.3769
      29    C9      15.080601   18.116136   22.390818 C.3        1 MOL1         0.1053
      30    H14     16.066621   18.465104   22.718723 H          1 MOL1         0.0783
      31    O8      14.542324   17.202063   23.351823 O.3        1 MOL1        -0.5519
      32    H15     14.284845   17.759480   24.119466 H          1 MOL1         0.3769
      33    C10     15.253440   17.402245   21.026392 C.3        1 MOL1         0.1018
      34    H16     14.323772   16.866286   20.793767 H          1 MOL1         0.0783
      35    C11     15.586473   18.393239   19.876048 C.3        1 MOL1         0.1043
      36    H17     16.618099   18.750054   19.999537 H          1 MOL1         0.0783
      37    O9      14.656816   19.505379   19.920681 O.3        1 MOL1        -0.3740
      38    C12     15.456884   17.752720   18.477952 C.3        1 MOL1         0.0138
      39    H18     14.428810   17.393254   18.337120 H          1 MOL1         0.0794
      40    H19     16.127823   16.888474   18.406123 H          1 MOL1         0.0794
      41    O10     15.795349   18.708462   17.471216 O.3        1 MOL1        -0.5486
      42    H20     15.271090   19.514118   17.678632 H          1 MOL1         0.3769
      43    C13     18.471968   23.937086   21.957835 C.3        1 MOL1         0.2972
      44    H21     18.912445   24.925076   22.142024 H          1 MOL1         0.0751
      45    O11     19.444838   23.007779   21.439337 O.3        1 MOL1        -0.3740
      46    C14     17.885325   23.358307   23.269764 C.3        1 MOL1         0.1003
      47    H22     17.107508   24.053336   23.611853 H          1 MOL1         0.0783
      48    O12     18.896449   23.244086   24.284622 O.3        1 MOL1        -0.5519
      49    H23     19.658970   23.800954   23.997554 H          1 MOL1         0.3769
      50    C15     17.226096   21.982280   23.013667 C.3        1 MOL1         0.1053
      51    H24     18.020439   21.271491   22.760969 H          1 MOL1         0.0783
      52    O13     16.555513   21.549665   24.200991 O.3        1 MOL1        -0.5519
      53    H25     17.203040   21.710903   24.923309 H          1 MOL1         0.3769
      54    C16     16.230155   22.029339   21.828038 C.3        1 MOL1         0.1018
      55    H26     15.301847   22.503957   22.173059 H          1 MOL1         0.0783
      56    C17     16.794596   22.789085   20.593978 C.3        1 MOL1         0.1043
      57    H27     17.556312   22.155009   20.121561 H          1 MOL1         0.0783
      58    O14     17.393811   24.042733   21.004813 O.3        1 MOL1        -0.3740
      59    C18     15.725100   23.107530   19.525241 C.3        1 MOL1         0.0138
      60    H28     15.344029   22.166403   19.107558 H          1 MOL1         0.0794
      61    H29     16.200538   23.659270   18.703259 H          1 MOL1         0.0794
      62    O15     14.650461   23.871712   20.080059 O.3        1 MOL1        -0.5486
      63    H30     15.055345   24.686372   20.452846 H          1 MOL1         0.3769
      64    C19     23.542786   22.810074   20.786897 C.3        1 MOL1         0.2972
      65    H31     24.579795   22.977213   20.468626 H          1 MOL1         0.0751
      66    O16     23.363982   21.506598   21.371311 O.3        1 MOL1        -0.3740
      67    C20     23.123708   23.853640   21.852209 C.3        1 MOL1         0.1003
      68    H32     23.236929   24.848124   21.401496 H          1 MOL1         0.0783
      69    O17     23.968148   23.757099   23.011116 O.3        1 MOL1        -0.5519
      70    H33     24.098449   22.792989   23.196867 H          1 MOL1         0.3769
      71    C21     21.637691   23.676724   22.257099 C.3        1 MOL1         0.1053
      72    H34     21.556087   22.743597   22.822237 H          1 MOL1         0.0783
      73    O18     21.248493   24.767728   23.098724 O.3        1 MOL1        -0.5519
      74    H35     22.010120   24.901643   23.707479 H          1 MOL1         0.3769
      75    C22     20.703510   23.568606   21.017878 C.3        1 MOL1         0.1018
      76    H36     20.567102   24.561983   20.569974 H          1 MOL1         0.0783
      77    C23     21.260915   22.608392   19.934036 C.3        1 MOL1         0.1043
      78    H37     21.173998   21.571702   20.289171 H          1 MOL1         0.0783
      79    O19     22.643938   22.942763   19.667297 O.3        1 MOL1        -0.3740
      80    C24     20.490827   22.735991   18.602802 C.3        1 MOL1         0.0138
      81    H38     20.580206   23.765163   18.230165 H          1 MOL1         0.0794
      82    H39     19.426159   22.536153   18.779412 H          1 MOL1         0.0794
      83    O20     21.008753   21.811529   17.644387 O.3        1 MOL1        -0.5486
      84    H40     21.979218   21.962348   17.623745 H          1 MOL1         0.3769
      85    C25     25.089879   17.745667   21.627257 C.3        1 MOL1         0.2972
      86    H41     25.774708   16.888155   21.625924 H          1 MOL1         0.0751
      87    O21     23.714395   17.333462   21.789388 O.3        1 MOL1        -0.3740
      88    C26     25.443352   18.713111   22.784553 C.3        1 MOL1         0.1003
      89    H42     26.474073   19.055708   22.625896 H          1 MOL1         0.0783
      90    O22     25.357790   18.050552   24.056720 O.3        1 MOL1        -0.5519
      91    H43     24.567144   17.454074   24.032806 H          1 MOL1         0.3769
      92    C27     24.520034   19.953262   22.755935 C.3        1 MOL1         0.1053
      93    H44     23.503262   19.614471   22.977444 H          1 MOL1         0.0783
      94    O23     24.943877   20.897645   23.745304 O.3        1 MOL1        -0.5519
      95    H45     25.107966   20.362139   24.552992 H          1 MOL1         0.3769
      96    C28     24.502423   20.625070   21.362358 C.3        1 MOL1         0.1018
      97    H46     25.444591   21.173305   21.231804 H          1 MOL1         0.0783
      98    C29     24.316620   19.597378   20.208926 C.3        1 MOL1         0.1043
      99    H47     23.280424   19.238805   20.220318 H          1 MOL1         0.0783
     100    O24     25.218929   18.478881   20.390912 O.3        1 MOL1        -0.3740
     101    C30     24.593948   20.183620   18.807081 C.3        1 MOL1         0.0138
     102    H48     23.851906   20.960429   18.587972 H          1 MOL1         0.0794
     103    H49     24.460602   19.388861   18.061071 H          1 MOL1         0.0794
     104    O25     25.916090   20.724257   18.724543 O.3        1 MOL1        -0.5486
     105    H50     26.526416   19.990712   18.960633 H          1 MOL1         0.3769
     106    C31     21.323350   13.914589   21.767860 C.3        1 MOL1         0.2972
     107    H51     20.942875   12.885132   21.776207 H          1 MOL1         0.0751
     108    O26     20.270583   14.870210   21.535059 O.3        1 MOL1        -0.3740
     109    C32     22.001344   14.244214   23.122643 C.3        1 MOL1         0.1003
     110    H52     22.839453   13.546534   23.248386 H          1 MOL1         0.0783
     111    O27     21.089094   14.082679   24.220083 O.3        1 MOL1        -0.5519
     112    H53     20.181199   13.996909   23.836738 H          1 MOL1         0.3769
     113    C33     22.574345   15.679264   23.109892 C.3        1 MOL1         0.1053
     114    H54     21.729593   16.373206   23.042595 H          1 MOL1         0.0783
     115    O28     23.303627   15.912103   24.318246 O.3        1 MOL1        -0.5519
     116    H55     22.722132   15.563543   25.030596 H          1 MOL1         0.3769
     117    C34     23.491999   15.909910   21.885970 C.3        1 MOL1         0.1018
     118    H56     24.426519   15.358222   22.052678 H          1 MOL1         0.0783
     119    C35     22.832797   15.429752   20.562894 C.3        1 MOL1         0.1043
     120    H57     22.013887   16.118153   20.314006 H          1 MOL1         0.0783
     121    O29     22.313503   14.084394   20.730423 O.3        1 MOL1        -0.3740
     122    C36     23.809909   15.401848   19.366764 C.3        1 MOL1         0.0138
     123    H58     24.154144   16.422945   19.158340 H          1 MOL1         0.0794
     124    H59     23.268184   15.052413   18.477665 H          1 MOL1         0.0794
     125    O30     24.926629   14.548118   19.634173 O.3        1 MOL1        -0.5486
     126    H60     24.550149   13.665884   19.849450 H          1 MOL1         0.3769
     127    C1      19.366054   17.578420   25.176621 C.3        1 MOL1        -0.1685
     128    H1      18.730340   17.289857   26.024393 H          1 MOL1         0.0832
     129    H2      19.881804   16.661204   24.861924 H          1 MOL1         0.0832
     130    C2      20.395088   18.610090   25.682538 C.3        1 MOL1        -0.1685
     131    H3      19.867584   19.467141   26.122751 H          1 MOL1         0.0832
     132    H4      20.968313   18.153347   26.500465 H          1 MOL1         0.0832
     133    C3      21.385250   19.111720   24.610505 C.3        1 MOL1        -0.1685
     134    H5      21.915950   18.272390   24.152326 H          1 MOL1         0.0832
     135    H6      22.152118   19.708960   25.122125 H          1 MOL1         0.0832
     136    C4      20.727511   20.003918   23.532125 C.3        1 MOL1        -0.1761
     137    H7      19.987014   20.661003   24.004334 H          1 MOL1         0.0832
     138    H8      21.495019   20.671055   23.131577 H          1 MOL1         0.0832
     139    C5      20.080406   19.278400   22.330880 C.3        1 MOL1         0.1218
     140    H9      19.482597   20.026016   21.792300 H          1 MOL1         0.0789
     141    C6      19.151409   18.086799   22.654533 C.3        1 MOL1        -0.1761
     142    H10     18.378554   18.067653   21.877893 H          1 MOL1         0.0832
     143    H11     19.701540   17.148735   22.541985 H          1 MOL1         0.0832
     144    C7      18.456633   18.089194   24.036976 C.3        1 MOL1        -0.1685
     145    H12     18.049065   19.081151   24.272117 H          1 MOL1         0.0832
     146    H13     17.596243   17.409828   23.982630 H          1 MOL1         0.0832
     147    O1      21.103346   18.825698   21.454454 O.3        1 MOL1        -0.5509
     148    H14     21.743317   18.324406   21.997835 H          1 MOL1         0.3779
@<TRIPOS>BOND
    1     1     2    1
    2     1     3    1
    3     1     4    1
    4     4     5    1
    5     4     6    1
    6     6     7    1
    7     4     8    1
    8     8     9    1
    9     8    10    1
   10    10    11    1
   11     8    12    1
   12    12    13    1
   13    12    14    1
   14    14    15    1
   15     1    16    1
   16    14    16    1
   17    14    17    1
   18    17    18    1
   19    17    19    1
   20    17    20    1
   21    20    21    1
   22    22    23    1
   23    22    24    1
   24    22    25    1
   25    25    26    1
   26    25    27    1
   27    27    28    1
   28    25    29    1
   29    29    30    1
   30    29    31    1
   31    31    32    1
   32     3    33    1
   33    29    33    1
   34    33    34    1
   35    33    35    1
   36    35    36    1
   37    22    37    1
   38    35    37    1
   39    35    38    1
   40    38    39    1
   41    38    40    1
   42    38    41    1
   43    41    42    1
   44    43    44    1
   45    43    45    1
   46    43    46    1
   47    46    47    1
   48    46    48    1
   49    48    49    1
   50    46    50    1
   51    50    51    1
   52    50    52    1
   53    52    53    1
   54    24    54    1
   55    50    54    1
   56    54    55    1
   57    54    56    1
   58    56    57    1
   59    43    58    1
   60    56    58    1
   61    56    59    1
   62    59    60    1
   63    59    61    1
   64    59    62    1
   65    62    63    1
   66    64    65    1
   67    64    66    1
   68    64    67    1
   69    67    68    1
   70    67    69    1
   71    69    70    1
   72    67    71    1
   73    71    72    1
   74    71    73    1
   75    73    74    1
   76    45    75    1
   77    71    75    1
   78    75    76    1
   79    75    77    1
   80    77    78    1
   81    64    79    1
   82    77    79    1
   83    77    80    1
   84    80    81    1
   85    80    82    1
   86    80    83    1
   87    83    84    1
   88    85    86    1
   89    85    87    1
   90    85    88    1
   91    88    89    1
   92    88    90    1
   93    90    91    1
   94    88    92    1
   95    92    93    1
   96    92    94    1
   97    94    95    1
   98    66    96    1
   99    92    96    1
  100    96    97    1
  101    96    98    1
  102    98    99    1
  103    85   100    1
  104    98   100    1
  105    98   101    1
  106   101   102    1
  107   101   103    1
  108   101   104    1
  109   104   105    1
  110   106   107    1
  111    12   108    1
  112   106   108    1
  113   106   109    1
  114   109   110    1
  115   109   111    1
  116   111   112    1
  117   109   113    1
  118   113   114    1
  119   113   115    1
  120   115   116    1
  121    87   117    1
  122   113   117    1
  123   117   118    1
  124   117   119    1
  125   119   120    1
  126   106   121    1
  127   119   121    1
  128   119   122    1
  129   122   123    1
  130   122   124    1
  131   122   125    1
  132   125   126    1
  133   127   128    1
  134   127   129    1
  135   127   130    1
  136   130   131    1
  137   130   132    1
  138   130   133    1
  139   133   134    1
  140   133   135    1
  141   133   136    1
  142   136   137    1
  143   136   138    1
  144   136   139    1
  145   139   140    1
  146   139   141    1
  147   141   142    1
  148   141   143    1
  149   127   144    1
  150   141   144    1
  151   144   145    1
  152   144   146    1
  153   139   147    1
  154   147   148    1
@<TRIPOS>SUBSTRUCTURE
       1 MOL1            1 RESIDUE      1      MOL     
       2 MOL1          148 RESIDUE      1      MOL     
@<SCITEGIC>MOL_PROPERTY
VM2 Rank
SciTegic.value.IntegerValue
4

@<SCITEGIC>MOL_PROPERTY
Conf_Id
SciTegic.value.IntegerValue
18838

@<SCITEGIC>MOL_PROPERTY
Probability
SciTegic.value.DoubleValue
1.18

@<SCITEGIC>MOL_PROPERTY
Sum Probability
SciTegic.value.DoubleValue
5.07

@<SCITEGIC>MOL_PROPERTY
Delta G
SciTegic.value.DoubleValue
0.153

@<SCITEGIC>MOL_PROPERTY
G
SciTegic.value.DoubleValue
566.201

@<SCITEGIC>MOL_PROPERTY
E
SciTegic.value.DoubleValue
371.339

@<SCITEGIC>MOL_PROPERTY
-TS
SciTegic.value.DoubleValue
194.863

@<SCITEGIC>MOL_PROPERTY
U+W
SciTegic.value.DoubleValue
240.779

@<SCITEGIC>MOL_PROPERTY
U
SciTegic.value.DoubleValue
272.926

@<SCITEGIC>MOL_PROPERTY
W
SciTegic.value.DoubleValue
-32.147

@<SCITEGIC>MOL_PROPERTY
W(PB)
SciTegic.value.DoubleValue
-38.311

@<SCITEGIC>MOL_PROPERTY
W(SA)
SciTegic.value.DoubleValue
6.164

@<SCITEGIC>MOL_PROPERTY
Valence
SciTegic.value.DoubleValue
158.929

@<SCITEGIC>MOL_PROPERTY
Coulomb
SciTegic.value.DoubleValue
140.883

@<SCITEGIC>MOL_PROPERTY
VdW
SciTegic.value.DoubleValue
-26.886

@<SCITEGIC>MOL_PROPERTY
VdW6
SciTegic.value.DoubleValue
-178.888

@<SCITEGIC>MOL_PROPERTY
VdW12
SciTegic.value.DoubleValue
152.002

@<SCITEGIC>MOL_PROPERTY
Bond
SciTegic.value.DoubleValue
4.321

@<SCITEGIC>MOL_PROPERTY
Angle
SciTegic.value.DoubleValue
11.845

@<SCITEGIC>MOL_PROPERTY
Pdih
SciTegic.value.DoubleValue
142.762

@<SCITEGIC>MOL_PROPERTY
Idih
SciTegic.value.DoubleValue
0.000

@<SCITEGIC>MOL_PROPERTY
Tether
SciTegic.value.DoubleValue
0.000

@<TRIPOS>MOLECULE
CD_guest-5_vm2_single.mol2 : vm2 host+ligand conformer 5
         148         154           2
SMALL
USER_CHARGES
 
@<TRIPOS>ATOM
       1    C1      16.273608   15.272543   20.509646 C.3        1 MOL1         0.2972
       2    H1      15.263740   15.107245   20.112654 H          1 MOL1         0.0751
       3    O1      16.413455   16.585602   21.082821 O.3        1 MOL1        -0.3740
       4    C2      16.596667   14.241472   21.620824 C.3        1 MOL1         0.1003
       5    H2      16.503668   13.241042   21.178703 H          1 MOL1         0.0783
       6    O2      15.670158   14.365079   22.712607 O.3        1 MOL1        -0.5519
       7    H3      15.539981   15.332565   22.880568 H          1 MOL1         0.3769
       8    C3      18.050872   14.405723   22.129387 C.3        1 MOL1         0.1053
       9    H4      18.117494   15.365862   22.657470 H          1 MOL1         0.0783
      10    O3      18.358275   13.338243   23.031119 O.3        1 MOL1        -0.5519
      11    H5      17.562583   13.252805   23.603447 H          1 MOL1         0.3769
      12    C4      19.065004   14.428078   20.955640 C.3        1 MOL1         0.1018
      13    H6      19.166553   13.418564   20.535575 H          1 MOL1         0.0783
      14    C5      18.625625   15.397628   19.827039 C.3        1 MOL1         0.1043
      15    H7      18.720612   16.429098   20.190562 H          1 MOL1         0.0783
      16    O4      17.251427   15.125670   19.459052 O.3        1 MOL1        -0.3740
      17    C6      19.482155   15.262918   18.548344 C.3        1 MOL1         0.0138
      18    H8      20.531365   15.470628   18.793599 H          1 MOL1         0.0794
      19    H9      19.156691   16.022338   17.825060 H          1 MOL1         0.0794
      20    O5      19.358646   13.954990   17.981965 O.3        1 MOL1        -0.5486
      21    H10     18.394277   13.796872   17.874364 H          1 MOL1         0.3769
      22    C7      14.629330   20.311004   21.220149 C.3        1 MOL1         0.2972
      23    H11     13.967417   21.185444   21.171803 H          1 MOL1         0.0751
      24    O6      16.004582   20.689374   21.432368 O.3        1 MOL1        -0.3740
      25    C8      14.206548   19.352359   22.362008 C.3        1 MOL1         0.1003
      26    H12     13.193700   18.994630   22.135779 H          1 MOL1         0.0783
      27    O7      14.195782   20.023138   23.631953 O.3        1 MOL1        -0.5519
      28    H13     15.072636   20.472009   23.740499 H          1 MOL1         0.3769
      29    C9      15.150745   18.127581   22.402030 C.3        1 MOL1         0.1053
      30    H14     16.147641   18.489443   22.678055 H          1 MOL1         0.0783
      31    O8      14.686471   17.186075   23.375501 O.3        1 MOL1        -0.5519
      32    H15     14.462443   17.725082   24.166300 H          1 MOL1         0.3769
      33    C10     15.255551   17.440538   21.018093 C.3        1 MOL1         0.1018
      34    H16     14.332851   16.869795   20.849451 H          1 MOL1         0.0783
      35    C11     15.474840   18.453665   19.857776 C.3        1 MOL1         0.1043
      36    H17     16.508223   18.822199   19.909493 H          1 MOL1         0.0783
      37    O9      14.554782   19.566409   19.986312 O.3        1 MOL1        -0.3740
      38    C12     15.260935   17.841564   18.455104 C.3        1 MOL1         0.0138
      39    H18     16.018865   17.068386   18.277805 H          1 MOL1         0.0794
      40    H19     15.415503   18.625429   17.701679 H          1 MOL1         0.0794
      41    O10     13.948625   17.285560   18.328885 O.3        1 MOL1        -0.5486
      42    H20     13.321025   18.017077   18.522295 H          1 MOL1         0.3769
      43    C13     18.523024   23.917834   21.899341 C.3        1 MOL1         0.2972
      44    H21     18.987421   24.898589   22.060521 H          1 MOL1         0.0751
      45    O11     19.467578   22.956422   21.385353 O.3        1 MOL1        -0.3740
      46    C14     17.944723   23.371360   23.228092 C.3        1 MOL1         0.1003
      47    H22     17.183391   24.084826   23.569319 H          1 MOL1         0.0783
      48    O12     18.968228   23.256386   24.230457 O.3        1 MOL1        -0.5519
      49    H23     19.726918   23.812680   23.933222 H          1 MOL1         0.3769
      50    C15     17.259471   22.002714   23.000017 C.3        1 MOL1         0.1053
      51    H24     18.037717   21.276026   22.742288 H          1 MOL1         0.0783
      52    O13     16.605053   21.594958   24.204622 O.3        1 MOL1        -0.5519
      53    H25     17.266729   21.760246   24.913195 H          1 MOL1         0.3769
      54    C16     16.243579   22.052789   21.830476 C.3        1 MOL1         0.1018
      55    H26     15.328609   22.544897   22.186288 H          1 MOL1         0.0783
      56    C17     16.796865   22.791981   20.579102 C.3        1 MOL1         0.1043
      57    H27     17.536277   22.140740   20.095298 H          1 MOL1         0.0783
      58    O14     17.429514   24.035885   20.965742 O.3        1 MOL1        -0.3740
      59    C18     15.709618   23.122711   19.532354 C.3        1 MOL1         0.0138
      60    H28     15.293363   22.185881   19.138901 H          1 MOL1         0.0794
      61    H29     16.178898   23.649915   18.690857 H          1 MOL1         0.0794
      62    O15     14.669832   23.923200   20.102447 O.3        1 MOL1        -0.5486
      63    H30     15.106602   24.730114   20.455679 H          1 MOL1         0.3769
      64    C19     23.569813   22.691104   20.711025 C.3        1 MOL1         0.2972
      65    H31     24.602077   22.843794   20.370559 H          1 MOL1         0.0751
      66    O16     23.406221   21.421265   21.367684 O.3        1 MOL1        -0.3740
      67    C20     23.160966   23.789187   21.724987 C.3        1 MOL1         0.1003
      68    H32     23.273076   24.759302   21.223723 H          1 MOL1         0.0783
      69    O17     24.015327   23.746980   22.880182 O.3        1 MOL1        -0.5519
      70    H33     24.127673   22.793588   23.122915 H          1 MOL1         0.3769
      71    C21     21.678453   23.638568   22.153574 C.3        1 MOL1         0.1053
      72    H34     21.598464   22.730193   22.758072 H          1 MOL1         0.0783
      73    O18     21.307943   24.765655   22.955349 O.3        1 MOL1        -0.5519
      74    H35     22.081241   24.922351   23.543606 H          1 MOL1         0.3769
      75    C22     20.730785   23.481057   20.929486 C.3        1 MOL1         0.1018
      76    H36     20.601752   24.451160   20.431556 H          1 MOL1         0.0783
      77    C23     21.275211   22.453336   19.901252 C.3        1 MOL1         0.1043
      78    H37     21.195559   21.446666   20.334506 H          1 MOL1         0.0783
      79    O19     22.658145   22.752241   19.595744 O.3        1 MOL1        -0.3740
      80    C24     20.494096   22.455839   18.568493 C.3        1 MOL1         0.0138
      81    H38     19.443598   22.207887   18.766931 H          1 MOL1         0.0794
      82    H39     20.901193   21.667422   17.921532 H          1 MOL1         0.0794
      83    O20     20.587027   23.726925   17.918523 O.3        1 MOL1        -0.5486
      84    H40     21.547231   23.928157   17.854186 H          1 MOL1         0.3769
      85    C25     25.148259   17.685525   21.750347 C.3        1 MOL1         0.2972
      86    H41     25.831046   16.827246   21.789912 H          1 MOL1         0.0751
      87    O21     23.767644   17.279534   21.872619 O.3        1 MOL1        -0.3740
      88    C26     25.459531   18.674204   22.901224 C.3        1 MOL1         0.1003
      89    H42     26.495788   19.013774   22.775624 H          1 MOL1         0.0783
      90    O22     25.323368   18.033193   24.180335 O.3        1 MOL1        -0.5519
      91    H43     24.533386   17.437412   24.135375 H          1 MOL1         0.3769
      92    C27     24.537548   19.912984   22.816131 C.3        1 MOL1         0.1053
      93    H44     23.515384   19.577395   23.015312 H          1 MOL1         0.0783
      94    O23     24.930604   20.880589   23.795860 O.3        1 MOL1        -0.5519
      95    H45     25.063961   20.365705   24.622221 H          1 MOL1         0.3769
      96    C28     24.556034   20.555545   21.408782 C.3        1 MOL1         0.1018
      97    H46     25.494003   21.115276   21.297964 H          1 MOL1         0.0783
      98    C29     24.418965   19.504487   20.269158 C.3        1 MOL1         0.1043
      99    H47     23.384554   19.139585   20.250524 H          1 MOL1         0.0783
     100    O24     25.320148   18.395549   20.506111 O.3        1 MOL1        -0.3740
     101    C30     24.746127   20.062953   18.866152 C.3        1 MOL1         0.0138
     102    H48     24.004797   20.825078   18.596838 H          1 MOL1         0.0794
     103    H49     24.653259   19.249598   18.134197 H          1 MOL1         0.0794
     104    O25     26.064551   20.617426   18.824932 O.3        1 MOL1        -0.5486
     105    H50     26.673238   19.896132   19.099873 H          1 MOL1         0.3769
     106    C31     21.317206   13.926133   21.771523 C.3        1 MOL1         0.2972
     107    H51     20.895128   12.912877   21.770121 H          1 MOL1         0.0751
     108    O26     20.317720   14.919489   21.470074 O.3        1 MOL1        -0.3740
     109    C32     21.935052   14.245548   23.156707 C.3        1 MOL1         0.1003
     110    H52     22.739890   13.519982   23.332103 H          1 MOL1         0.0783
     111    O27     20.960114   14.128005   24.204837 O.3        1 MOL1        -0.5519
     112    H53     20.083244   13.979547   23.772432 H          1 MOL1         0.3769
     113    C33     22.557083   15.660129   23.160927 C.3        1 MOL1         0.1053
     114    H54     21.739310   16.380317   23.053353 H          1 MOL1         0.0783
     115    O28     23.239716   15.880434   24.398717 O.3        1 MOL1        -0.5519
     116    H55     22.614086   15.562812   25.087622 H          1 MOL1         0.3769
     117    C34     23.534830   15.858941   21.978405 C.3        1 MOL1         0.1018
     118    H56     24.456477   15.305345   22.201121 H          1 MOL1         0.0783
     119    C35     22.940975   15.366754   20.628732 C.3        1 MOL1         0.1043
     120    H57     22.161017   16.074487   20.318030 H          1 MOL1         0.0783
     121    O29     22.369021   14.042441   20.789612 O.3        1 MOL1        -0.3740
     122    C36     23.984746   15.283914   19.492969 C.3        1 MOL1         0.0138
     123    H58     24.369701   16.289794   19.282305 H          1 MOL1         0.0794
     124    H59     23.485558   14.928464   18.581584 H          1 MOL1         0.0794
     125    O30     25.059202   14.406613   19.843921 O.3        1 MOL1        -0.5486
     126    H60     24.646218   13.539629   20.054287 H          1 MOL1         0.3769
     127    C1      19.379545   17.590931   25.210823 C.3        1 MOL1        -0.1685
     128    H1      18.736759   17.307467   26.054964 H          1 MOL1         0.0832
     129    H2      19.895671   16.671431   24.904192 H          1 MOL1         0.0832
     130    C2      20.407119   18.622180   25.719846 C.3        1 MOL1        -0.1685
     131    H3      19.878892   19.482876   26.151985 H          1 MOL1         0.0832
     132    H4      20.973098   18.167720   26.544064 H          1 MOL1         0.0832
     133    C3      21.406057   19.114648   24.652108 C.3        1 MOL1        -0.1685
     134    H5      21.933765   18.270327   24.199488 H          1 MOL1         0.0832
     135    H6      22.173529   19.709192   25.165924 H          1 MOL1         0.0832
     136    C4      20.758651   20.006652   23.567419 C.3        1 MOL1        -0.1761
     137    H7      20.014974   20.665029   24.032853 H          1 MOL1         0.0832
     138    H8      21.530096   20.673136   23.173190 H          1 MOL1         0.0832
     139    C5      20.118585   19.280070   22.363022 C.3        1 MOL1         0.1218
     140    H9      19.524181   20.028359   21.821950 H          1 MOL1         0.0789
     141    C6      19.184535   18.091234   22.683985 C.3        1 MOL1        -0.1761
     142    H10     18.416029   18.074038   21.903323 H          1 MOL1         0.0832
     143    H11     19.730483   17.150259   22.576786 H          1 MOL1         0.0832
     144    C7      18.480028   18.097394   24.061549 C.3        1 MOL1        -0.1685
     145    H12     18.068830   19.089413   24.290349 H          1 MOL1         0.0832
     146    H13     17.621844   17.415532   24.002079 H          1 MOL1         0.0832
     147    O1      21.145200   18.826063   21.490068 O.3        1 MOL1        -0.5509
     148    H14     21.773199   18.311505   22.034914 H          1 MOL1         0.3779
@<TRIPOS>BOND
    1     1     2    1
    2     1     3    1
    3     1     4    1
    4     4     5    1
    5     4     6    1
    6     6     7    1
    7     4     8    1
    8     8     9    1
    9     8    10    1
   10    10    11    1
   11     8    12    1
   12    12    13    1
   13    12    14    1
   14    14    15    1
   15     1    16    1
   16    14    16    1
   17    14    17    1
   18    17    18    1
   19    17    19    1
   20    17    20    1
   21    20    21    1
   22    22    23    1
   23    22    24    1
   24    22    25    1
   25    25    26    1
   26    25    27    1
   27    27    28    1
   28    25    29    1
   29    29    30    1
   30    29    31    1
   31    31    32    1
   32     3    33    1
   33    29    33    1
   34    33    34    1
   35    33    35    1
   36    35    36    1
   37    22    37    1
   38    35    37    1
   39    35    38    1
   40    38    39    1
   41    38    40    1
   42    38    41    1
   43    41    42    1
   44    43    44    1
   45    43    45    1
   46    43    46    1
   47    46    47    1
   48    46    48    1
   49    48    49    1
   50    46    50    1
   51    50    51    1
   52    50    52    1
   53    52    53    1
   54    24    54    1
   55    50    54    1
   56    54    55    1
   57    54    56    1
   58    56    57    1
   59    43    58    1
   60    56    58    1
   61    56    59    1
   62    59    60    1
   63    59    61    1
   64    59    62    1
   65    62    63    1
   66    64    65    1
   67    64    66    1
   68    64    67    1
   69    67    68    1
   70    67    69    1
   71    69    70    1
   72    67    71    1
   73    71    72    1
   74    71    73    1
   75    73    74    1
   76    45    75    1
   77    71    75    1
   78    75    76    1
   79    75    77    1
   80    77    78    1
   81    64    79    1
   82    77    79    1
   83    77    80    1
   84    80    81    1
   85    80    82    1
   86    80    83    1
   87    83    84    1
   88    85    86    1
   89    85    87    1
   90    85    88    1
   91    88    89    1
   92    88    90    1
   93    90    91    1
   94    88    92    1
   95    92    93    1
   96    92    94    1
   97    94    95    1
   98    66    96    1
   99    92    96    1
  100    96    97    1
  101    96    98    1
  102    98    99    1
  103    85   100    1
  104    98   100    1
  105    98   101    1
  106   101   102    1
  107   101   103    1
  108   101   104    1
  109   104   105    1
  110   106   107    1
  111    12   108    1
  112   106   108    1
  113   106   109    1
  114   109   110    1
  115   109   111    1
  116   111   112    1
  117   109   113    1
  118   113   114    1
  119   113   115    1
  120   115   116    1
  121    87   117    1
  122   113   117    1
  123   117   118    1
  124   117   119    1
  125   119   120    1
  126   106   121    1
  127   119   121    1
  128   119   122    1
  129   122   123    1
  130   122   124    1
  131   122   125    1
  132   125   126    1
  133   127   128    1
  134   127   129    1
  135   127   130    1
  136   130   131    1
  137   130   132    1
  138   130   133    1
  139   133   134    1
  140   133   135    1
  141   133   136    1
  142   136   137    1
  143   136   138    1
  144   136   139    1
  145   139   140    1
  146   139   141    1
  147   141   142    1
  148   141   143    1
  149   127   144    1
  150   141   144    1
  151   144   145    1
  152   144   146    1
  153   139   147    1
  154   147   148    1
@<TRIPOS>SUBSTRUCTURE
       1 MOL1            1 RESIDUE      1      MOL     
       2 MOL1          148 RESIDUE      1      MOL     
@<SCITEGIC>MOL_PROPERTY
VM2 Rank
SciTegic.value.IntegerValue
5

@<SCITEGIC>MOL_PROPERTY
Conf_Id
SciTegic.value.IntegerValue
21484

@<SCITEGIC>MOL_PROPERTY
Probability
SciTegic.value.DoubleValue
1.14

@<SCITEGIC>MOL_PROPERTY
Sum Probability
SciTegic.value.DoubleValue
6.21

@<SCITEGIC>MOL_PROPERTY
Delta G
SciTegic.value.DoubleValue
0.172

@<SCITEGIC>MOL_PROPERTY
G
SciTegic.value.DoubleValue
566.220

@<SCITEGIC>MOL_PROPERTY
E
SciTegic.value.DoubleValue
370.744

@<SCITEGIC>MOL_PROPERTY
-TS
SciTegic.value.DoubleValue
195.476

@<SCITEGIC>MOL_PROPERTY
U+W
SciTegic.value.DoubleValue
240.184

@<SCITEGIC>MOL_PROPERTY
U
SciTegic.value.DoubleValue
270.936

@<SCITEGIC>MOL_PROPERTY
W
SciTegic.value.DoubleValue
-30.752

@<SCITEGIC>MOL_PROPERTY
W(PB)
SciTegic.value.DoubleValue
-36.939

@<SCITEGIC>MOL_PROPERTY
W(SA)
SciTegic.value.DoubleValue
6.188

@<SCITEGIC>MOL_PROPERTY
Valence
SciTegic.value.DoubleValue
157.720

@<SCITEGIC>MOL_PROPERTY
Coulomb
SciTegic.value.DoubleValue
139.585

@<SCITEGIC>MOL_PROPERTY
VdW
SciTegic.value.DoubleValue
-26.369

@<SCITEGIC>MOL_PROPERTY
VdW6
SciTegic.value.DoubleValue
-179.669

@<SCITEGIC>MOL_PROPERTY
VdW12
SciTegic.value.DoubleValue
153.300

@<SCITEGIC>MOL_PROPERTY
Bond
SciTegic.value.DoubleValue
4.355

@<SCITEGIC>MOL_PROPERTY
Angle
SciTegic.value.DoubleValue
12.174

@<SCITEGIC>MOL_PROPERTY
Pdih
SciTegic.value.DoubleValue
141.190

@<SCITEGIC>MOL_PROPERTY
Idih
SciTegic.value.DoubleValue
0.000

@<SCITEGIC>MOL_PROPERTY
Tether
SciTegic.value.DoubleValue
0.000

@<TRIPOS>MOLECULE
CD_guest-5_vm2_single.mol2 : vm2 host+ligand conformer 6
         148         154           2
SMALL
USER_CHARGES
 
@<TRIPOS>ATOM
       1    C1      16.254228   15.171921   20.654456 C.3        1 MOL1         0.2972
       2    H1      15.233883   14.991766   20.292583 H          1 MOL1         0.0751
       3    O1      16.418797   16.515033   21.148755 O.3        1 MOL1        -0.3740
       4    C2      16.596489   14.204322   21.815143 C.3        1 MOL1         0.1003
       5    H2      16.489640   13.180816   21.433075 H          1 MOL1         0.0783
       6    O2      15.695518   14.394092   22.918440 O.3        1 MOL1        -0.5519
       7    H3      15.544632   15.368690   23.011334 H          1 MOL1         0.3769
       8    C3      18.062759   14.390657   22.278519 C.3        1 MOL1         0.1053
       9    H4      18.144151   15.375713   22.754765 H          1 MOL1         0.0783
      10    O3      18.393886   13.369985   23.224260 O.3        1 MOL1        -0.5519
      11    H5      17.619507   13.323284   23.829086 H          1 MOL1         0.3769
      12    C4      19.048330   14.349768   21.082007 C.3        1 MOL1         0.1018
      13    H6      19.137279   13.318514   20.715114 H          1 MOL1         0.0783
      14    C5      18.587644   15.254959   19.910558 C.3        1 MOL1         0.1043
      15    H7      18.694296   16.308416   20.202004 H          1 MOL1         0.0783
      16    O4      17.207872   14.948595   19.594557 O.3        1 MOL1        -0.3740
      17    C6      19.418544   15.012184   18.633223 C.3        1 MOL1         0.0138
      18    H8      19.307074   13.964997   18.321764 H          1 MOL1         0.0794
      19    H9      20.480051   15.183065   18.852999 H          1 MOL1         0.0794
      20    O5      18.987877   15.891632   17.592760 O.3        1 MOL1        -0.5486
      21    H10     18.018531   15.755584   17.509229 H          1 MOL1         0.3769
      22    C7      14.671035   20.272909   21.102981 C.3        1 MOL1         0.2972
      23    H11     14.010931   21.143775   20.997954 H          1 MOL1         0.0751
      24    O6      16.035311   20.663763   21.357553 O.3        1 MOL1        -0.3740
      25    C8      14.200318   19.350016   22.256367 C.3        1 MOL1         0.1003
      26    H12     13.195820   18.988812   22.000392 H          1 MOL1         0.0783
      27    O7      14.140404   20.057537   23.504750 O.3        1 MOL1        -0.5519
      28    H13     15.025159   20.479339   23.651183 H          1 MOL1         0.3769
      29    C9      15.136184   18.123427   22.371039 C.3        1 MOL1         0.1053
      30    H14     16.124722   18.489284   22.671926 H          1 MOL1         0.0783
      31    O8      14.630341   17.216308   23.356285 O.3        1 MOL1        -0.5519
      32    H15     14.377411   17.781889   24.119360 H          1 MOL1         0.3769
      33    C10     15.284899   17.393709   21.013136 C.3        1 MOL1         0.1018
      34    H16     14.357024   16.839996   20.818582 H          1 MOL1         0.0783
      35    C11     15.573235   18.372847   19.839612 C.3        1 MOL1         0.1043
      36    H17     16.604523   18.738351   19.936432 H          1 MOL1         0.0783
      37    O9      14.651505   19.490762   19.890267 O.3        1 MOL1        -0.3740
      38    C12     15.431521   17.723884   18.444863 C.3        1 MOL1         0.0138
      39    H18     16.192514   16.942431   18.332372 H          1 MOL1         0.0794
      40    H19     15.633423   18.485472   17.679855 H          1 MOL1         0.0794
      41    O10     14.124511   17.171344   18.261621 O.3        1 MOL1        -0.5486
      42    H20     13.492135   17.910793   18.401605 H          1 MOL1         0.3769
      43    C13     18.492918   23.925927   21.918998 C.3        1 MOL1         0.2972
      44    H21     18.938673   24.910644   22.107548 H          1 MOL1         0.0751
      45    O11     19.457975   22.995955   21.386417 O.3        1 MOL1        -0.3740
      46    C14     17.910926   23.338876   23.229391 C.3        1 MOL1         0.1003
      47    H22     17.135461   24.032616   23.579364 H          1 MOL1         0.0783
      48    O12     18.924732   23.215018   24.240298 O.3        1 MOL1        -0.5519
      49    H23     19.682846   23.781782   23.960900 H          1 MOL1         0.3769
      50    C15     17.248715   21.965799   22.965823 C.3        1 MOL1         0.1053
      51    H24     18.040821   21.256428   22.703656 H          1 MOL1         0.0783
      52    O13     16.587068   21.525220   24.154887 O.3        1 MOL1        -0.5519
      53    H25     17.239332   21.684727   24.873457 H          1 MOL1         0.3769
      54    C16     16.245888   22.022967   21.785695 C.3        1 MOL1         0.1018
      55    H26     15.318081   22.491319   22.140490 H          1 MOL1         0.0783
      56    C17     16.800924   22.797425   20.556365 C.3        1 MOL1         0.1043
      57    H27     17.556732   22.167871   20.068604 H          1 MOL1         0.0783
      58    O14     17.407826   24.044587   20.975393 O.3        1 MOL1        -0.3740
      59    C18     15.720934   23.130366   19.502667 C.3        1 MOL1         0.0138
      60    H28     15.329625   22.194602   19.081950 H          1 MOL1         0.0794
      61    H29     16.189801   23.686371   18.679791 H          1 MOL1         0.0794
      62    O15     14.657197   23.895883   20.076404 O.3        1 MOL1        -0.5486
      63    H30     15.071453   24.704101   20.452979 H          1 MOL1         0.3769
      64    C19     23.565478   22.772839   20.782155 C.3        1 MOL1         0.2972
      65    H31     24.605861   22.934675   20.472239 H          1 MOL1         0.0751
      66    O16     23.376591   21.472655   21.370632 O.3        1 MOL1        -0.3740
      67    C20     23.139068   23.823662   21.837149 C.3        1 MOL1         0.1003
      68    H32     23.256808   24.814853   21.380374 H          1 MOL1         0.0783
      69    O17     23.973025   23.736332   23.004329 O.3        1 MOL1        -0.5519
      70    H33     24.093748   22.773930   23.206145 H          1 MOL1         0.3769
      71    C21     21.649359   23.650608   22.229228 C.3        1 MOL1         0.1053
      72    H34     21.559006   22.716093   22.790830 H          1 MOL1         0.0783
      73    O18     21.259113   24.742926   23.068717 O.3        1 MOL1        -0.5519
      74    H35     22.020163   24.876836   23.678380 H          1 MOL1         0.3769
      75    C22     20.726784   23.546900   20.980970 C.3        1 MOL1         0.1018
      76    H36     20.602895   24.540032   20.528988 H          1 MOL1         0.0783
      77    C23     21.290377   22.578700   19.907178 C.3        1 MOL1         0.1043
      78    H37     21.193920   21.544241   20.266482 H          1 MOL1         0.0783
      79    O19     22.678361   22.902729   19.652609 O.3        1 MOL1        -0.3740
      80    C24     20.534230   22.704952   18.567827 C.3        1 MOL1         0.0138
      81    H38     20.638344   23.730437   18.188898 H          1 MOL1         0.0794
      82    H39     19.465770   22.517925   18.735812 H          1 MOL1         0.0794
      83    O20     21.050940   21.768127   17.620921 O.3        1 MOL1        -0.5486
      84    H40     22.024219   21.901836   17.615078 H          1 MOL1         0.3769
      85    C25     25.128621   17.733846   21.734102 C.3        1 MOL1         0.2972
      86    H41     25.818913   16.881445   21.767556 H          1 MOL1         0.0751
      87    O21     23.751605   17.314906   21.860306 O.3        1 MOL1        -0.3740
      88    C26     25.437898   18.719116   22.888798 C.3        1 MOL1         0.1003
      89    H42     26.470479   19.068015   22.758547 H          1 MOL1         0.0783
      90    O22     25.316461   18.071618   24.165909 O.3        1 MOL1        -0.5519
      91    H43     24.546313   17.450636   24.115968 H          1 MOL1         0.3769
      92    C27     24.506183   19.951165   22.815188 C.3        1 MOL1         0.1053
      93    H44     23.486298   19.606909   23.011197 H          1 MOL1         0.0783
      94    O23     24.893107   20.911828   23.803859 O.3        1 MOL1        -0.5519
      95    H45     25.035731   20.388184   24.623321 H          1 MOL1         0.3769
      96    C28     24.524042   20.603640   21.412446 C.3        1 MOL1         0.1018
      97    H46     25.464233   21.159816   21.302869 H          1 MOL1         0.0783
      98    C29     24.383958   19.559032   20.268028 C.3        1 MOL1         0.1043
      99    H47     23.351363   19.189995   20.252443 H          1 MOL1         0.0783
     100    O24     25.291112   18.452053   20.492671 O.3        1 MOL1        -0.3740
     101    C30     24.696543   20.131906   18.868086 C.3        1 MOL1         0.0138
     102    H48     23.955031   20.900982   18.620130 H          1 MOL1         0.0794
     103    H49     24.590252   19.328117   18.127424 H          1 MOL1         0.0794
     104    O25     26.016424   20.681913   18.817162 O.3        1 MOL1        -0.5486
     105    H50     26.625075   19.956164   19.080210 H          1 MOL1         0.3769
     106    C31     21.357466   13.902004   21.767366 C.3        1 MOL1         0.2972
     107    H51     20.973287   12.873924   21.757921 H          1 MOL1         0.0751
     108    O26     20.309747   14.864972   21.546774 O.3        1 MOL1        -0.3740
     109    C32     22.028626   14.207416   23.130629 C.3        1 MOL1         0.1003
     110    H52     22.864963   13.506540   23.250242 H          1 MOL1         0.0783
     111    O27     21.107090   14.028200   24.217612 O.3        1 MOL1        -0.5519
     112    H53     20.200469   13.968568   23.826428 H          1 MOL1         0.3769
     113    C33     22.602823   15.641974   23.144372 C.3        1 MOL1         0.1053
     114    H54     21.758959   16.338100   23.082754 H          1 MOL1         0.0783
     115    O28     23.324879   15.856094   24.360517 O.3        1 MOL1        -0.5519
     116    H55     22.739096   15.497624   25.064323 H          1 MOL1         0.3769
     117    C34     23.528070   15.890353   21.929469 C.3        1 MOL1         0.1018
     118    H56     24.461076   15.334568   22.090805 H          1 MOL1         0.0783
     119    C35     22.874812   15.434970   20.594568 C.3        1 MOL1         0.1043
     120    H57     22.060166   16.131315   20.353186 H          1 MOL1         0.0783
     121    O29     22.349485   14.087847   20.734536 O.3        1 MOL1        -0.3740
     122    C36     23.858834   15.424958   19.403885 C.3        1 MOL1         0.0138
     123    H58     24.212808   16.447273   19.219617 H          1 MOL1         0.0794
     124    H59     23.319877   15.099829   18.504010 H          1 MOL1         0.0794
     125    O30     24.966576   14.556079   19.659512 O.3        1 MOL1        -0.5486
     126    H60     24.581494   13.673990   19.859459 H          1 MOL1         0.3769
     127    C1      19.375340   17.491836   25.157410 C.3        1 MOL1        -0.1685
     128    H1      18.727041   17.167556   25.982439 H          1 MOL1         0.0832
     129    H2      19.898199   16.589271   24.814046 H          1 MOL1         0.0832
     130    C2      20.393341   18.504101   25.721895 C.3        1 MOL1        -0.1685
     131    H3      19.855941   19.340256   26.189419 H          1 MOL1         0.0832
     132    H4      20.955712   18.015251   26.528723 H          1 MOL1         0.0832
     133    C3      21.397735   19.054104   24.687447 C.3        1 MOL1        -0.1685
     134    H5      21.944412   18.236732   24.208383 H          1 MOL1         0.0832
     135    H6      22.150140   19.638560   25.234068 H          1 MOL1         0.0832
     136    C4      20.750232   19.979417   23.630663 C.3        1 MOL1        -0.1761
     137    H7      19.989416   20.607651   24.110176 H          1 MOL1         0.0832
     138    H8      21.516280   20.673252   23.274215 H          1 MOL1         0.0832
     139    C5      20.139819   19.289131   22.389760 C.3        1 MOL1         0.1218
     140    H9      19.563590   20.053392   21.851916 H          1 MOL1         0.0789
     141    C6      19.195354   18.094001   22.652490 C.3        1 MOL1        -0.1761
     142    H10     18.432446   18.112096   21.865507 H          1 MOL1         0.0832
     143    H11     19.739028   17.156218   22.509095 H          1 MOL1         0.0832
     144    C7      18.482408   18.046835   24.025235 C.3        1 MOL1        -0.1685
     145    H12     18.073147   19.030274   24.291506 H          1 MOL1         0.0832
     146    H13     17.621100   17.372719   23.934488 H          1 MOL1         0.0832
     147    O1      21.186982   18.855894   21.533211 O.3        1 MOL1        -0.5509
     148    H14     21.797297   18.318798   22.075973 H          1 MOL1         0.3779
@<TRIPOS>BOND
    1     1     2    1
    2     1     3    1
    3     1     4    1
    4     4     5    1
    5     4     6    1
    6     6     7    1
    7     4     8    1
    8     8     9    1
    9     8    10    1
   10    10    11    1
   11     8    12    1
   12    12    13    1
   13    12    14    1
   14    14    15    1
   15     1    16    1
   16    14    16    1
   17    14    17    1
   18    17    18    1
   19    17    19    1
   20    17    20    1
   21    20    21    1
   22    22    23    1
   23    22    24    1
   24    22    25    1
   25    25    26    1
   26    25    27    1
   27    27    28    1
   28    25    29    1
   29    29    30    1
   30    29    31    1
   31    31    32    1
   32     3    33    1
   33    29    33    1
   34    33    34    1
   35    33    35    1
   36    35    36    1
   37    22    37    1
   38    35    37    1
   39    35    38    1
   40    38    39    1
   41    38    40    1
   42    38    41    1
   43    41    42    1
   44    43    44    1
   45    43    45    1
   46    43    46    1
   47    46    47    1
   48    46    48    1
   49    48    49    1
   50    46    50    1
   51    50    51    1
   52    50    52    1
   53    52    53    1
   54    24    54    1
   55    50    54    1
   56    54    55    1
   57    54    56    1
   58    56    57    1
   59    43    58    1
   60    56    58    1
   61    56    59    1
   62    59    60    1
   63    59    61    1
   64    59    62    1
   65    62    63    1
   66    64    65    1
   67    64    66    1
   68    64    67    1
   69    67    68    1
   70    67    69    1
   71    69    70    1
   72    67    71    1
   73    71    72    1
   74    71    73    1
   75    73    74    1
   76    45    75    1
   77    71    75    1
   78    75    76    1
   79    75    77    1
   80    77    78    1
   81    64    79    1
   82    77    79    1
   83    77    80    1
   84    80    81    1
   85    80    82    1
   86    80    83    1
   87    83    84    1
   88    85    86    1
   89    85    87    1
   90    85    88    1
   91    88    89    1
   92    88    90    1
   93    90    91    1
   94    88    92    1
   95    92    93    1
   96    92    94    1
   97    94    95    1
   98    66    96    1
   99    92    96    1
  100    96    97    1
  101    96    98    1
  102    98    99    1
  103    85   100    1
  104    98   100    1
  105    98   101    1
  106   101   102    1
  107   101   103    1
  108   101   104    1
  109   104   105    1
  110   106   107    1
  111    12   108    1
  112   106   108    1
  113   106   109    1
  114   109   110    1
  115   109   111    1
  116   111   112    1
  117   109   113    1
  118   113   114    1
  119   113   115    1
  120   115   116    1
  121    87   117    1
  122   113   117    1
  123   117   118    1
  124   117   119    1
  125   119   120    1
  126   106   121    1
  127   119   121    1
  128   119   122    1
  129   122   123    1
  130   122   124    1
  131   122   125    1
  132   125   126    1
  133   127   128    1
  134   127   129    1
  135   127   130    1
  136   130   131    1
  137   130   132    1
  138   130   133    1
  139   133   134    1
  140   133   135    1
  141   133   136    1
  142   136   137    1
  143   136   138    1
  144   136   139    1
  145   139   140    1
  146   139   141    1
  147   141   142    1
  148   141   143    1
  149   127   144    1
  150   141   144    1
  151   144   145    1
  152   144   146    1
  153   139   147    1
  154   147   148    1
@<TRIPOS>SUBSTRUCTURE
       1 MOL1            1 RESIDUE      1      MOL     
       2 MOL1          148 RESIDUE      1      MOL     
@<SCITEGIC>MOL_PROPERTY
VM2 Rank
SciTegic.value.IntegerValue
6

@<SCITEGIC>MOL_PROPERTY
Conf_Id
SciTegic.value.IntegerValue
26662

@<SCITEGIC>MOL_PROPERTY
Probability
SciTegic.value.DoubleValue
1.11

@<SCITEGIC>MOL_PROPERTY
Sum Probability
SciTegic.value.DoubleValue
7.32

@<SCITEGIC>MOL_PROPERTY
Delta G
SciTegic.value.DoubleValue
0.186

@<SCITEGIC>MOL_PROPERTY
G
SciTegic.value.DoubleValue
566.235

@<SCITEGIC>MOL_PROPERTY
E
SciTegic.value.DoubleValue
370.815

@<SCITEGIC>MOL_PROPERTY
-TS
SciTegic.value.DoubleValue
195.420

@<SCITEGIC>MOL_PROPERTY
U+W
SciTegic.value.DoubleValue
240.255

@<SCITEGIC>MOL_PROPERTY
U
SciTegic.value.DoubleValue
271.870

@<SCITEGIC>MOL_PROPERTY
W
SciTegic.value.DoubleValue
-31.614

@<SCITEGIC>MOL_PROPERTY
W(PB)
SciTegic.value.DoubleValue
-37.802

@<SCITEGIC>MOL_PROPERTY
W(SA)
SciTegic.value.DoubleValue
6.188

@<SCITEGIC>MOL_PROPERTY
Valence
SciTegic.value.DoubleValue
158.521

@<SCITEGIC>MOL_PROPERTY
Coulomb
SciTegic.value.DoubleValue
140.319

@<SCITEGIC>MOL_PROPERTY
VdW
SciTegic.value.DoubleValue
-26.971

@<SCITEGIC>MOL_PROPERTY
VdW6
SciTegic.value.DoubleValue
-179.465

@<SCITEGIC>MOL_PROPERTY
VdW12
SciTegic.value.DoubleValue
152.494

@<SCITEGIC>MOL_PROPERTY
Bond
SciTegic.value.DoubleValue
4.328

@<SCITEGIC>MOL_PROPERTY
Angle
SciTegic.value.DoubleValue
11.811

@<SCITEGIC>MOL_PROPERTY
Pdih
SciTegic.value.DoubleValue
142.381

@<SCITEGIC>MOL_PROPERTY
Idih
SciTegic.value.DoubleValue
0.000

@<SCITEGIC>MOL_PROPERTY
Tether
SciTegic.value.DoubleValue
0.000

@<TRIPOS>MOLECULE
CD_guest-5_vm2_single.mol2 : vm2 host+ligand conformer 7
         148         154           2
SMALL
USER_CHARGES
 
@<TRIPOS>ATOM
       1    C1      16.273360   15.202268   21.565880 C.3        1 MOL1         0.2972
       2    H1      15.186076   15.055099   21.534478 H          1 MOL1         0.0751
       3    O1      16.631474   16.577761   21.328962 O.3        1 MOL1        -0.3740
       4    C2      16.830709   14.774189   22.947339 C.3        1 MOL1         0.1003
       5    H2      16.608584   13.706744   23.074576 H          1 MOL1         0.0783
       6    O2      16.212524   15.513084   24.012631 O.3        1 MOL1        -0.5519
       7    H3      15.658059   16.217701   23.595452 H          1 MOL1         0.3769
       8    C3      18.365082   14.952250   22.992619 C.3        1 MOL1         0.1053
       9    H4      18.574237   16.025588   22.933924 H          1 MOL1         0.0783
      10    O3      18.874137   14.424411   24.221036 O.3        1 MOL1        -0.5519
      11    H5      18.268674   14.774530   24.912178 H          1 MOL1         0.3769
      12    C4      19.057676   14.258492   21.795452 C.3        1 MOL1         0.1018
      13    H6      19.044222   13.175195   21.973686 H          1 MOL1         0.0783
      14    C5      18.362212   14.576551   20.441999 C.3        1 MOL1         0.1043
      15    H7      18.584644   15.619035   20.178241 H          1 MOL1         0.0783
      16    O4      16.927391   14.394273   20.564279 O.3        1 MOL1        -0.3740
      17    C6      18.843279   13.681004   19.278900 C.3        1 MOL1         0.0138
      18    H8      19.909716   13.865891   19.097898 H          1 MOL1         0.0794
      19    H9      18.303375   13.968780   18.366846 H          1 MOL1         0.0794
      20    O5      18.623322   12.297319   19.569306 O.3        1 MOL1        -0.5486
      21    H10     17.662388   12.206970   19.756124 H          1 MOL1         0.3769
      22    C7      14.919119   20.281849   20.464366 C.3        1 MOL1         0.2972
      23    H11     14.275714   21.084944   20.082478 H          1 MOL1         0.0751
      24    O6      16.111665   20.801138   21.081025 O.3        1 MOL1        -0.3740
      25    C8      14.168808   19.444746   21.531413 C.3        1 MOL1         0.1003
      26    H12     13.266597   19.038118   21.056394 H          1 MOL1         0.0783
      27    O7      13.787713   20.268267   22.646009 O.3        1 MOL1        -0.5519
      28    H13     14.555276   20.859791   22.851200 H          1 MOL1         0.3769
      29    C9      15.032733   18.253107   22.015070 C.3        1 MOL1         0.1053
      30    H14     15.884449   18.659698   22.575689 H          1 MOL1         0.0783
      31    O8      14.247876   17.417939   22.871602 O.3        1 MOL1        -0.5519
      32    H15     13.762342   18.041111   23.457977 H          1 MOL1         0.3769
      33    C10     15.587185   17.430834   20.822187 C.3        1 MOL1         0.1018
      34    H16     14.775179   16.850671   20.364005 H          1 MOL1         0.0783
      35    C11     16.226833   18.338498   19.738728 C.3        1 MOL1         0.1043
      36    H17     17.157725   18.762514   20.137385 H          1 MOL1         0.0783
      37    O9      15.306667   19.401095   19.389453 O.3        1 MOL1        -0.3740
      38    C12     16.569032   17.577416   18.438526 C.3        1 MOL1         0.0138
      39    H18     17.272439   16.767451   18.669216 H          1 MOL1         0.0794
      40    H19     17.075571   18.266828   17.750079 H          1 MOL1         0.0794
      41    O10     15.389345   17.046015   17.827990 O.3        1 MOL1        -0.5486
      42    H20     14.768814   17.802857   17.734706 H          1 MOL1         0.3769
      43    C13     18.425912   24.213241   21.379492 C.3        1 MOL1         0.2972
      44    H21     18.846822   25.227110   21.374509 H          1 MOL1         0.0751
      45    O11     19.444231   23.210255   21.570546 O.3        1 MOL1        -0.3740
      46    C14     17.366517   24.053022   22.499307 C.3        1 MOL1         0.1003
      47    H22     16.550041   24.754683   22.284713 H          1 MOL1         0.0783
      48    O12     17.918501   24.354974   23.790343 O.3        1 MOL1        -0.5519
      49    H23     18.742739   23.815053   23.896590 H          1 MOL1         0.3769
      50    C15     16.785447   22.619430   22.478021 C.3        1 MOL1         0.1053
      51    H24     17.596185   21.931196   22.743066 H          1 MOL1         0.0783
      52    O13     15.722022   22.510732   23.430434 O.3        1 MOL1        -0.5519
      53    H25     16.061025   22.946682   24.243493 H          1 MOL1         0.3769
      54    C16     16.267963   22.233308   21.070376 C.3        1 MOL1         0.1018
      55    H26     15.312843   22.748902   20.904619 H          1 MOL1         0.0783
      56    C17     17.272518   22.596249   19.938910 C.3        1 MOL1         0.1043
      57    H27     18.111609   21.888610   19.979343 H          1 MOL1         0.0783
      58    O14     17.765564   23.946769   20.124414 O.3        1 MOL1        -0.3740
      59    C18     16.660168   22.522586   18.522029 C.3        1 MOL1         0.0138
      60    H28     16.380064   21.484930   18.301880 H          1 MOL1         0.0794
      61    H29     17.427199   22.812728   17.791628 H          1 MOL1         0.0794
      62    O15     15.518775   23.377802   18.407467 O.3        1 MOL1        -0.5486
      63    H30     15.828880   24.281569   18.638624 H          1 MOL1         0.3769
      64    C19     23.495549   22.656578   22.108061 C.3        1 MOL1         0.2972
      65    H31     24.571748   22.748917   22.300504 H          1 MOL1         0.0751
      66    O16     23.164893   21.380677   21.522569 O.3        1 MOL1        -0.3740
      67    C20     22.697051   22.816506   23.426095 C.3        1 MOL1         0.1003
      68    H32     22.914868   23.818516   23.818061 H          1 MOL1         0.0783
      69    O17     23.091926   21.833637   24.397220 O.3        1 MOL1        -0.5519
      70    H33     23.965499   21.476599   24.108721 H          1 MOL1         0.3769
      71    C21     21.176520   22.721900   23.156678 C.3        1 MOL1         0.1053
      72    H34     20.953547   21.695444   22.845578 H          1 MOL1         0.0783
      73    O18     20.464505   23.022664   24.360063 O.3        1 MOL1        -0.5519
      74    H35     20.928049   22.505522   25.056458 H          1 MOL1         0.3769
      75    C22     20.731312   23.675605   22.019387 C.3        1 MOL1         0.1018
      76    H36     20.683524   24.696661   22.420804 H          1 MOL1         0.0783
      77    C23     21.677597   23.628517   20.786186 C.3        1 MOL1         0.1043
      78    H37     21.502370   22.682920   20.256471 H          1 MOL1         0.0783
      79    O19     23.062295   23.697190   21.207185 O.3        1 MOL1        -0.3740
      80    C24     21.433039   24.778390   19.783476 C.3        1 MOL1         0.0138
      81    H38     20.423324   24.679542   19.363369 H          1 MOL1         0.0794
      82    H39     22.143281   24.678938   18.951764 H          1 MOL1         0.0794
      83    O20     21.582045   26.054070   20.413762 O.3        1 MOL1        -0.5486
      84    H40     22.490686   26.071299   20.788883 H          1 MOL1         0.3769
      85    C25     25.017445   17.727980   20.784799 C.3        1 MOL1         0.2972
      86    H41     25.677626   16.921288   20.441118 H          1 MOL1         0.0751
      87    O21     23.802106   17.216741   21.362524 O.3        1 MOL1        -0.3740
      88    C26     25.718768   18.584998   21.867897 C.3        1 MOL1         0.1003
      89    H42     26.635080   18.992875   21.421826 H          1 MOL1         0.0783
      90    O22     26.062866   17.778264   23.006475 O.3        1 MOL1        -0.5519
      91    H43     25.287515   17.190633   23.193287 H          1 MOL1         0.3769
      92    C27     24.827887   19.775845   22.305687 C.3        1 MOL1         0.1053
      93    H44     23.976420   19.369237   22.859410 H          1 MOL1         0.0783
      94    O23     25.585585   20.629013   23.170653 O.3        1 MOL1        -0.5519
      95    H45     26.084453   20.015339   23.756621 H          1 MOL1         0.3769
      96    C28     24.271021   20.565656   21.086103 C.3        1 MOL1         0.1018
      97    H46     25.068532   21.180371   20.647889 H          1 MOL1         0.0783
      98    C29     23.703479   19.629426   19.986594 C.3        1 MOL1         0.1043
      99    H47     22.763824   19.182893   20.341644 H          1 MOL1         0.0783
     100    O24     24.676619   18.600062   19.687858 O.3        1 MOL1        -0.3740
     101    C30     23.418869   20.390353   18.674490 C.3        1 MOL1         0.0138
     102    H48     24.355465   20.820376   18.295122 H          1 MOL1         0.0794
     103    H49     22.729327   21.219594   18.878642 H          1 MOL1         0.0794
     104    O25     22.846982   19.507152   17.707852 O.3        1 MOL1        -0.5486
     105    H50     23.446095   18.729662   17.667194 H          1 MOL1         0.3769
     106    C31     21.456514   13.807597   21.598402 C.3        1 MOL1         0.2972
     107    H51     21.066680   12.781722   21.596125 H          1 MOL1         0.0751
     108    O26     20.401158   14.782570   21.741787 O.3        1 MOL1        -0.3740
     109    C32     22.446982   14.004410   22.772916 C.3        1 MOL1         0.1003
     110    H52     23.269191   13.289999   22.636922 H          1 MOL1         0.0783
     111    O27     21.804448   13.752451   24.033677 O.3        1 MOL1        -0.5519
     112    H53     20.888192   14.125079   23.983444 H          1 MOL1         0.3769
     113    C33     23.044288   15.431010   22.746103 C.3        1 MOL1         0.1053
     114    H54     22.231331   16.133000   22.954171 H          1 MOL1         0.0783
     115    O28     24.059069   15.551642   23.748992 O.3        1 MOL1        -0.5519
     116    H55     23.669574   15.144655   24.554331 H          1 MOL1         0.3769
     117    C34     23.631024   15.786888   21.359358 C.3        1 MOL1         0.1018
     118    H56     24.586994   15.259560   21.243660 H          1 MOL1         0.0783
     119    C35     22.669862   15.416056   20.193797 C.3        1 MOL1         0.1043
     120    H57     21.829384   16.121066   20.193419 H          1 MOL1         0.0783
     121    O29     22.172652   14.067296   20.372568 O.3        1 MOL1        -0.3740
     122    C36     23.334326   15.478556   18.800745 C.3        1 MOL1         0.0138
     123    H58     23.621522   16.514674   18.584739 H          1 MOL1         0.0794
     124    H59     22.594695   15.182949   18.044767 H          1 MOL1         0.0794
     125    O30     24.479559   14.623423   18.734929 O.3        1 MOL1        -0.5486
     126    H60     24.161932   13.722784   18.967967 H          1 MOL1         0.3769
     127    C1      18.375922   18.593595   25.192877 C.3        1 MOL1        -0.1685
     128    H1      17.786693   18.973332   26.038278 H          1 MOL1         0.0832
     129    H2      17.850410   17.696518   24.839254 H          1 MOL1         0.0832
     130    C2      19.772526   18.207109   25.721230 C.3        1 MOL1        -0.1685
     131    H3      20.237943   19.080399   26.197998 H          1 MOL1         0.0832
     132    H4      19.646556   17.458575   26.514970 H          1 MOL1         0.0832
     133    C3      20.727959   17.633898   24.653817 C.3        1 MOL1        -0.1685
     134    H5      20.278390   16.767721   24.159736 H          1 MOL1         0.0832
     135    H6      21.617962   17.255338   25.174468 H          1 MOL1         0.0832
     136    C4      21.192041   18.682497   23.616132 C.3        1 MOL1        -0.1761
     137    H7      21.369101   19.640941   24.119315 H          1 MOL1         0.0832
     138    H8      22.167482   18.371476   23.233087 H          1 MOL1         0.0832
     139    C5      20.268607   18.905134   22.397260 C.3        1 MOL1         0.1218
     140    H9      20.629620   19.807973   21.886824 H          1 MOL1         0.0789
     141    C6      18.765133   19.108937   22.691973 C.3        1 MOL1        -0.1761
     142    H10     18.384039   19.795010   21.927524 H          1 MOL1         0.0832
     143    H11     18.226058   18.170713   22.536530 H          1 MOL1         0.0832
     144    C7      18.386114   19.668956   24.083628 C.3        1 MOL1        -0.1685
     145    H12     19.031658   20.513406   24.358646 H          1 MOL1         0.0832
     146    H13     17.366934   20.071225   24.016621 H          1 MOL1         0.0832
     147    O1      20.408389   17.813232   21.498000 O.3        1 MOL1        -0.5509
     148    H14     20.269590   16.996802   22.017227 H          1 MOL1         0.3779
@<TRIPOS>BOND
    1     1     2    1
    2     1     3    1
    3     1     4    1
    4     4     5    1
    5     4     6    1
    6     6     7    1
    7     4     8    1
    8     8     9    1
    9     8    10    1
   10    10    11    1
   11     8    12    1
   12    12    13    1
   13    12    14    1
   14    14    15    1
   15     1    16    1
   16    14    16    1
   17    14    17    1
   18    17    18    1
   19    17    19    1
   20    17    20    1
   21    20    21    1
   22    22    23    1
   23    22    24    1
   24    22    25    1
   25    25    26    1
   26    25    27    1
   27    27    28    1
   28    25    29    1
   29    29    30    1
   30    29    31    1
   31    31    32    1
   32     3    33    1
   33    29    33    1
   34    33    34    1
   35    33    35    1
   36    35    36    1
   37    22    37    1
   38    35    37    1
   39    35    38    1
   40    38    39    1
   41    38    40    1
   42    38    41    1
   43    41    42    1
   44    43    44    1
   45    43    45    1
   46    43    46    1
   47    46    47    1
   48    46    48    1
   49    48    49    1
   50    46    50    1
   51    50    51    1
   52    50    52    1
   53    52    53    1
   54    24    54    1
   55    50    54    1
   56    54    55    1
   57    54    56    1
   58    56    57    1
   59    43    58    1
   60    56    58    1
   61    56    59    1
   62    59    60    1
   63    59    61    1
   64    59    62    1
   65    62    63    1
   66    64    65    1
   67    64    66    1
   68    64    67    1
   69    67    68    1
   70    67    69    1
   71    69    70    1
   72    67    71    1
   73    71    72    1
   74    71    73    1
   75    73    74    1
   76    45    75    1
   77    71    75    1
   78    75    76    1
   79    75    77    1
   80    77    78    1
   81    64    79    1
   82    77    79    1
   83    77    80    1
   84    80    81    1
   85    80    82    1
   86    80    83    1
   87    83    84    1
   88    85    86    1
   89    85    87    1
   90    85    88    1
   91    88    89    1
   92    88    90    1
   93    90    91    1
   94    88    92    1
   95    92    93    1
   96    92    94    1
   97    94    95    1
   98    66    96    1
   99    92    96    1
  100    96    97    1
  101    96    98    1
  102    98    99    1
  103    85   100    1
  104    98   100    1
  105    98   101    1
  106   101   102    1
  107   101   103    1
  108   101   104    1
  109   104   105    1
  110   106   107    1
  111    12   108    1
  112   106   108    1
  113   106   109    1
  114   109   110    1
  115   109   111    1
  116   111   112    1
  117   109   113    1
  118   113   114    1
  119   113   115    1
  120   115   116    1
  121    87   117    1
  122   113   117    1
  123   117   118    1
  124   117   119    1
  125   119   120    1
  126   106   121    1
  127   119   121    1
  128   119   122    1
  129   122   123    1
  130   122   124    1
  131   122   125    1
  132   125   126    1
  133   127   128    1
  134   127   129    1
  135   127   130    1
  136   130   131    1
  137   130   132    1
  138   130   133    1
  139   133   134    1
  140   133   135    1
  141   133   136    1
  142   136   137    1
  143   136   138    1
  144   136   139    1
  145   139   140    1
  146   139   141    1
  147   141   142    1
  148   141   143    1
  149   127   144    1
  150   141   144    1
  151   144   145    1
  152   144   146    1
  153   139   147    1
  154   147   148    1
@<TRIPOS>SUBSTRUCTURE
       1 MOL1            1 RESIDUE      1      MOL     
       2 MOL1          148 RESIDUE      1      MOL     
@<SCITEGIC>MOL_PROPERTY
VM2 Rank
SciTegic.value.IntegerValue
7

@<SCITEGIC>MOL_PROPERTY
Conf_Id
SciTegic.value.IntegerValue
9941

@<SCITEGIC>MOL_PROPERTY
Probability
SciTegic.value.DoubleValue
1.06

@<SCITEGIC>MOL_PROPERTY
Sum Probability
SciTegic.value.DoubleValue
8.38

@<SCITEGIC>MOL_PROPERTY
Delta G
SciTegic.value.DoubleValue
0.218

@<SCITEGIC>MOL_PROPERTY
G
SciTegic.value.DoubleValue
566.267

@<SCITEGIC>MOL_PROPERTY
E
SciTegic.value.DoubleValue
370.901

@<SCITEGIC>MOL_PROPERTY
-TS
SciTegic.value.DoubleValue
195.366

@<SCITEGIC>MOL_PROPERTY
U+W
SciTegic.value.DoubleValue
240.341

@<SCITEGIC>MOL_PROPERTY
U
SciTegic.value.DoubleValue
271.188

@<SCITEGIC>MOL_PROPERTY
W
SciTegic.value.DoubleValue
-30.847

@<SCITEGIC>MOL_PROPERTY
W(PB)
SciTegic.value.DoubleValue
-37.082

@<SCITEGIC>MOL_PROPERTY
W(SA)
SciTegic.value.DoubleValue
6.234

@<SCITEGIC>MOL_PROPERTY
Valence
SciTegic.value.DoubleValue
158.027

@<SCITEGIC>MOL_PROPERTY
Coulomb
SciTegic.value.DoubleValue
139.722

@<SCITEGIC>MOL_PROPERTY
VdW
SciTegic.value.DoubleValue
-26.560

@<SCITEGIC>MOL_PROPERTY
VdW6
SciTegic.value.DoubleValue
-179.424

@<SCITEGIC>MOL_PROPERTY
VdW12
SciTegic.value.DoubleValue
152.863

@<SCITEGIC>MOL_PROPERTY
Bond
SciTegic.value.DoubleValue
4.338

@<SCITEGIC>MOL_PROPERTY
Angle
SciTegic.value.DoubleValue
12.027

@<SCITEGIC>MOL_PROPERTY
Pdih
SciTegic.value.DoubleValue
141.663

@<SCITEGIC>MOL_PROPERTY
Idih
SciTegic.value.DoubleValue
0.000

@<SCITEGIC>MOL_PROPERTY
Tether
SciTegic.value.DoubleValue
0.000

@<TRIPOS>MOLECULE
CD_guest-5_vm2_single.mol2 : vm2 host+ligand conformer 8
         148         154           2
SMALL
USER_CHARGES
 
@<TRIPOS>ATOM
       1    C1      16.102691   15.005093   21.429109 C.3        1 MOL1         0.2972
       2    H1      15.026641   14.790745   21.457497 H          1 MOL1         0.0751
       3    O1      16.378770   16.412804   21.562385 O.3        1 MOL1        -0.3740
       4    C2      16.846173   14.268667   22.571908 C.3        1 MOL1         0.1003
       5    H2      16.713137   13.190464   22.414407 H          1 MOL1         0.0783
       6    O2      16.312254   14.626897   23.856559 O.3        1 MOL1        -0.5519
       7    H3      16.171238   15.607513   23.861776 H          1 MOL1         0.3769
       8    C3      18.360531   14.579627   22.508930 C.3        1 MOL1         0.1053
       9    H4      18.488701   15.647106   22.719278 H          1 MOL1         0.0783
      10    O3      19.057063   13.799662   23.486513 O.3        1 MOL1        -0.5519
      11    H5      18.512974   13.868695   24.302118 H          1 MOL1         0.3769
      12    C4      18.941793   14.296897   21.103023 C.3        1 MOL1         0.1018
      13    H6      19.027385   13.208424   20.984764 H          1 MOL1         0.0783
      14    C5      18.064436   14.888696   19.961707 C.3        1 MOL1         0.1043
      15    H7      18.185171   15.980337   19.962262 H          1 MOL1         0.0783
      16    O4      16.671601   14.552611   20.182179 O.3        1 MOL1        -0.3740
      17    C6      18.444659   14.375432   18.554456 C.3        1 MOL1         0.0138
      18    H8      19.451846   14.729942   18.300473 H          1 MOL1         0.0794
      19    H9      17.753533   14.812486   17.821378 H          1 MOL1         0.0794
      20    O5      18.393294   12.946963   18.493419 O.3        1 MOL1        -0.5486
      21    H10     17.476395   12.693711   18.741553 H          1 MOL1         0.3769
      22    C7      14.771957   20.187496   21.694084 C.3        1 MOL1         0.2972
      23    H11     14.150556   21.090559   21.750684 H          1 MOL1         0.0751
      24    O6      16.132971   20.498002   21.328714 O.3        1 MOL1        -0.3740
      25    C8      14.773446   19.454065   23.057752 C.3        1 MOL1         0.1003
      26    H12     13.739940   19.146974   23.264299 H          1 MOL1         0.0783
      27    O7      15.228430   20.310995   24.116868 O.3        1 MOL1        -0.5519
      28    H13     15.388843   21.202274   23.721505 H          1 MOL1         0.3769
      29    C9      15.646809   18.181989   22.982900 C.3        1 MOL1         0.1053
      30    H14     16.688534   18.496285   22.841293 H          1 MOL1         0.0783
      31    O8      15.521733   17.451569   24.206147 O.3        1 MOL1        -0.5519
      32    H15     15.601469   18.134616   24.909471 H          1 MOL1         0.3769
      33    C10     15.253963   17.282276   21.785874 C.3        1 MOL1         0.1018
      34    H16     14.343633   16.727117   22.048063 H          1 MOL1         0.0783
      35    C11     15.034812   18.080793   20.469377 C.3        1 MOL1         0.1043
      36    H17     16.019554   18.371876   20.081632 H          1 MOL1         0.0783
      37    O9      14.240916   19.269974   20.714717 O.3        1 MOL1        -0.3740
      38    C12     14.323822   17.257922   19.372268 C.3        1 MOL1         0.0138
      39    H18     14.950943   16.397034   19.105394 H          1 MOL1         0.0794
      40    H19     14.222985   17.880392   18.473161 H          1 MOL1         0.0794
      41    O10     13.038084   16.813077   19.814636 O.3        1 MOL1        -0.5486
      42    H20     12.542583   17.621411   20.074997 H          1 MOL1         0.3769
      43    C13     18.485579   23.863488   20.569155 C.3        1 MOL1         0.2972
      44    H21     18.860670   24.826184   20.198515 H          1 MOL1         0.0751
      45    O11     19.519558   23.099290   21.218159 O.3        1 MOL1        -0.3740
      46    C14     17.348596   24.080959   21.598886 C.3        1 MOL1         0.1003
      47    H22     16.554371   24.647972   21.096169 H          1 MOL1         0.0783
      48    O12     17.819761   24.830512   22.730847 O.3        1 MOL1        -0.5519
      49    H23     18.711099   24.472120   22.973048 H          1 MOL1         0.3769
      50    C15     16.750796   22.728251   22.059879 C.3        1 MOL1         0.1053
      51    H24     17.517670   22.199176   22.639241 H          1 MOL1         0.0783
      52    O13     15.608443   22.981013   22.884293 O.3        1 MOL1        -0.5519
      53    H25     15.876956   23.729101   23.464819 H          1 MOL1         0.3769
      54    C16     16.368493   21.835506   20.848597 C.3        1 MOL1         0.1018
      55    H26     15.479827   22.245223   20.349928 H          1 MOL1         0.0783
      56    C17     17.518441   21.744204   19.813075 C.3        1 MOL1         0.1043
      57    H27     18.344556   21.161331   20.242117 H          1 MOL1         0.0783
      58    O14     17.956363   23.082614   19.477445 O.3        1 MOL1        -0.3740
      59    C18     17.067327   21.066537   18.502371 C.3        1 MOL1         0.0138
      60    H28     16.278703   21.670853   18.034342 H          1 MOL1         0.0794
      61    H29     16.640852   20.081718   18.730164 H          1 MOL1         0.0794
      62    O15     18.180261   20.922005   17.617921 O.3        1 MOL1        -0.5486
      63    H30     18.566879   21.819949   17.520953 H          1 MOL1         0.3769
      64    C19     23.625972   22.921138   21.697343 C.3        1 MOL1         0.2972
      65    H31     24.706583   23.107323   21.745705 H          1 MOL1         0.0751
      66    O16     23.312607   21.523819   21.855770 O.3        1 MOL1        -0.3740
      67    C20     22.879166   23.707818   22.804698 C.3        1 MOL1         0.1003
      68    H32     23.061616   24.776034   22.629766 H          1 MOL1         0.0783
      69    O17     23.366544   23.354980   24.109032 O.3        1 MOL1        -0.5519
      70    H33     23.427909   22.366518   24.147838 H          1 MOL1         0.3769
      71    C21     21.353177   23.462742   22.711086 C.3        1 MOL1         0.1053
      72    H34     21.163384   22.414851   22.967382 H          1 MOL1         0.0783
      73    O18     20.668950   24.314066   23.636325 O.3        1 MOL1        -0.5519
      74    H35     21.168160   24.228526   24.478761 H          1 MOL1         0.3769
      75    C22     20.820850   23.714012   21.278636 C.3        1 MOL1         0.1018
      76    H36     20.770026   24.799315   21.119961 H          1 MOL1         0.0783
      77    C23     21.706236   23.058814   20.180394 C.3        1 MOL1         0.1043
      78    H37     21.549438   21.972116   20.210285 H          1 MOL1         0.0783
      79    O19     23.102490   23.357809   20.425891 O.3        1 MOL1        -0.3740
      80    C24     21.377230   23.543132   18.750511 C.3        1 MOL1         0.0138
      81    H38     20.359679   23.228497   18.488286 H          1 MOL1         0.0794
      82    H39     22.060662   23.050844   18.045822 H          1 MOL1         0.0794
      83    O20     21.496935   24.964926   18.645572 O.3        1 MOL1        -0.5486
      84    H40     22.416283   25.183543   18.916515 H          1 MOL1         0.3769
      85    C25     24.901248   17.731589   22.119056 C.3        1 MOL1         0.2972
      86    H41     25.518425   16.831144   22.232286 H          1 MOL1         0.0751
      87    O21     23.565331   17.406123   21.674575 O.3        1 MOL1        -0.3740
      88    C26     24.830423   18.495874   23.464863 C.3        1 MOL1         0.1003
      89    H42     25.848327   18.832650   23.700041 H          1 MOL1         0.0783
      90    O22     24.366830   17.655880   24.530806 O.3        1 MOL1        -0.5519
      91    H43     23.420399   17.438812   24.336998 H          1 MOL1         0.3769
      92    C27     23.935645   19.745977   23.320372 C.3        1 MOL1         0.1053
      93    H44     22.919972   19.405312   23.089266 H          1 MOL1         0.0783
      94    O23     23.937324   20.486302   24.545205 O.3        1 MOL1        -0.5519
      95    H45     23.869843   19.805663   25.251264 H          1 MOL1         0.3769
      96    C28     24.412240   20.642432   22.153702 C.3        1 MOL1         0.1018
      97    H46     25.308332   21.189331   22.475555 H          1 MOL1         0.0783
      98    C29     24.711806   19.830804   20.860920 C.3        1 MOL1         0.1043
      99    H47     23.749025   19.540856   20.424763 H          1 MOL1         0.0783
     100    O24     25.486941   18.639059   21.159434 O.3        1 MOL1        -0.3740
     101    C30     25.485471   20.640196   19.797087 C.3        1 MOL1         0.0138
     102    H48     24.871886   21.492534   19.476910 H          1 MOL1         0.0794
     103    H49     25.645512   20.003158   18.916768 H          1 MOL1         0.0794
     104    O25     26.738453   21.100041   20.312052 O.3        1 MOL1        -0.5486
     105    H50     27.224249   20.298020   20.607768 H          1 MOL1         0.3769
     106    C31     21.269076   14.207647   20.380329 C.3        1 MOL1         0.2972
     107    H51     20.874996   13.307170   19.891426 H          1 MOL1         0.0751
     108    O26     20.229814   14.942984   21.055307 O.3        1 MOL1        -0.3740
     109    C32     22.353746   13.829718   21.417904 C.3        1 MOL1         0.1003
     110    H52     23.134517   13.275230   20.881291 H          1 MOL1         0.0783
     111    O27     21.801412   12.990325   22.446055 O.3        1 MOL1        -0.5519
     112    H53     20.961918   13.415312   22.755641 H          1 MOL1         0.3769
     113    C33     23.011895   15.085058   22.044728 C.3        1 MOL1         0.1053
     114    H54     22.280196   15.549793   22.717441 H          1 MOL1         0.0783
     115    O28     24.158282   14.668563   22.792657 O.3        1 MOL1        -0.5519
     116    H55     23.836061   13.957372   23.388159 H          1 MOL1         0.3769
     117    C34     23.422301   16.145675   20.984132 C.3        1 MOL1         0.1018
     118    H56     24.362663   15.841608   20.505429 H          1 MOL1         0.0783
     119    C35     22.342843   16.348872   19.884008 C.3        1 MOL1         0.1043
     120    H57     21.504059   16.910926   20.313374 H          1 MOL1         0.0783
     121    O29     21.875596   15.068808   19.399428 O.3        1 MOL1        -0.3740
     122    C36     22.858733   17.128376   18.653558 C.3        1 MOL1         0.0138
     123    H58     23.186962   18.125489   18.965260 H          1 MOL1         0.0794
     124    H59     22.026260   17.264058   17.950264 H          1 MOL1         0.0794
     125    O30     23.934604   16.434555   18.015409 O.3        1 MOL1        -0.5486
     126    H60     23.602654   15.526936   17.835020 H          1 MOL1         0.3769
     127    C1      19.445557   19.847946   25.696163 C.3        1 MOL1        -0.1685
     128    H1      18.970720   20.490511   26.450082 H          1 MOL1         0.0832
     129    H2      20.519746   20.058002   25.780575 H          1 MOL1         0.0832
     130    C2      18.947419   20.282210   24.300296 C.3        1 MOL1        -0.1685
     131    H3      17.945238   19.884650   24.103966 H          1 MOL1         0.0832
     132    H4      18.844311   21.375309   24.313202 H          1 MOL1         0.0832
     133    C3      19.924225   19.919987   23.157950 C.3        1 MOL1        -0.1685
     134    H5      20.929745   20.261700   23.426849 H          1 MOL1         0.0832
     135    H6      19.642741   20.494222   22.265648 H          1 MOL1         0.0832
     136    C4      19.977390   18.423503   22.764173 C.3        1 MOL1        -0.1761
     137    H7      19.025729   18.141267   22.296218 H          1 MOL1         0.0832
     138    H8      20.738750   18.302942   21.984303 H          1 MOL1         0.0832
     139    C5      20.292581   17.422096   23.897605 C.3        1 MOL1         0.1218
     140    H9      20.401383   16.433935   23.432812 H          1 MOL1         0.0789
     141    C6      19.157914   17.324276   24.940273 C.3        1 MOL1        -0.1761
     142    H10     18.197714   17.365295   24.414959 H          1 MOL1         0.0832
     143    H11     19.195060   16.326021   25.394813 H          1 MOL1         0.0832
     144    C7      19.153367   18.375754   26.082688 C.3        1 MOL1        -0.1685
     145    H12     18.168237   18.332727   26.566664 H          1 MOL1         0.0832
     146    H13     19.872466   18.070460   26.855050 H          1 MOL1         0.0832
     147    O1      21.509447   17.763837   24.534213 O.3        1 MOL1        -0.5509
     148    H14     21.272230   18.560243   25.049031 H          1 MOL1         0.3779
@<TRIPOS>BOND
    1     1     2    1
    2     1     3    1
    3     1     4    1
    4     4     5    1
    5     4     6    1
    6     6     7    1
    7     4     8    1
    8     8     9    1
    9     8    10    1
   10    10    11    1
   11     8    12    1
   12    12    13    1
   13    12    14    1
   14    14    15    1
   15     1    16    1
   16    14    16    1
   17    14    17    1
   18    17    18    1
   19    17    19    1
   20    17    20    1
   21    20    21    1
   22    22    23    1
   23    22    24    1
   24    22    25    1
   25    25    26    1
   26    25    27    1
   27    27    28    1
   28    25    29    1
   29    29    30    1
   30    29    31    1
   31    31    32    1
   32     3    33    1
   33    29    33    1
   34    33    34    1
   35    33    35    1
   36    35    36    1
   37    22    37    1
   38    35    37    1
   39    35    38    1
   40    38    39    1
   41    38    40    1
   42    38    41    1
   43    41    42    1
   44    43    44    1
   45    43    45    1
   46    43    46    1
   47    46    47    1
   48    46    48    1
   49    48    49    1
   50    46    50    1
   51    50    51    1
   52    50    52    1
   53    52    53    1
   54    24    54    1
   55    50    54    1
   56    54    55    1
   57    54    56    1
   58    56    57    1
   59    43    58    1
   60    56    58    1
   61    56    59    1
   62    59    60    1
   63    59    61    1
   64    59    62    1
   65    62    63    1
   66    64    65    1
   67    64    66    1
   68    64    67    1
   69    67    68    1
   70    67    69    1
   71    69    70    1
   72    67    71    1
   73    71    72    1
   74    71    73    1
   75    73    74    1
   76    45    75    1
   77    71    75    1
   78    75    76    1
   79    75    77    1
   80    77    78    1
   81    64    79    1
   82    77    79    1
   83    77    80    1
   84    80    81    1
   85    80    82    1
   86    80    83    1
   87    83    84    1
   88    85    86    1
   89    85    87    1
   90    85    88    1
   91    88    89    1
   92    88    90    1
   93    90    91    1
   94    88    92    1
   95    92    93    1
   96    92    94    1
   97    94    95    1
   98    66    96    1
   99    92    96    1
  100    96    97    1
  101    96    98    1
  102    98    99    1
  103    85   100    1
  104    98   100    1
  105    98   101    1
  106   101   102    1
  107   101   103    1
  108   101   104    1
  109   104   105    1
  110   106   107    1
  111    12   108    1
  112   106   108    1
  113   106   109    1
  114   109   110    1
  115   109   111    1
  116   111   112    1
  117   109   113    1
  118   113   114    1
  119   113   115    1
  120   115   116    1
  121    87   117    1
  122   113   117    1
  123   117   118    1
  124   117   119    1
  125   119   120    1
  126   106   121    1
  127   119   121    1
  128   119   122    1
  129   122   123    1
  130   122   124    1
  131   122   125    1
  132   125   126    1
  133   127   128    1
  134   127   129    1
  135   127   130    1
  136   130   131    1
  137   130   132    1
  138   130   133    1
  139   133   134    1
  140   133   135    1
  141   133   136    1
  142   136   137    1
  143   136   138    1
  144   136   139    1
  145   139   140    1
  146   139   141    1
  147   141   142    1
  148   141   143    1
  149   127   144    1
  150   141   144    1
  151   144   145    1
  152   144   146    1
  153   139   147    1
  154   147   148    1
@<TRIPOS>SUBSTRUCTURE
       1 MOL1            1 RESIDUE      1      MOL     
       2 MOL1          148 RESIDUE      1      MOL     
@<SCITEGIC>MOL_PROPERTY
VM2 Rank
SciTegic.value.IntegerValue
8

@<SCITEGIC>MOL_PROPERTY
Conf_Id
SciTegic.value.IntegerValue
4748

@<SCITEGIC>MOL_PROPERTY
Probability
SciTegic.value.DoubleValue
0.89

@<SCITEGIC>MOL_PROPERTY
Sum Probability
SciTegic.value.DoubleValue
9.27

@<SCITEGIC>MOL_PROPERTY
Delta G
SciTegic.value.DoubleValue
0.318

@<SCITEGIC>MOL_PROPERTY
G
SciTegic.value.DoubleValue
566.366

@<SCITEGIC>MOL_PROPERTY
E
SciTegic.value.DoubleValue
371.366

@<SCITEGIC>MOL_PROPERTY
-TS
SciTegic.value.DoubleValue
195.000

@<SCITEGIC>MOL_PROPERTY
U+W
SciTegic.value.DoubleValue
240.806

@<SCITEGIC>MOL_PROPERTY
U
SciTegic.value.DoubleValue
273.120

@<SCITEGIC>MOL_PROPERTY
W
SciTegic.value.DoubleValue
-32.314

@<SCITEGIC>MOL_PROPERTY
W(PB)
SciTegic.value.DoubleValue
-38.427

@<SCITEGIC>MOL_PROPERTY
W(SA)
SciTegic.value.DoubleValue
6.113

@<SCITEGIC>MOL_PROPERTY
Valence
SciTegic.value.DoubleValue
157.211

@<SCITEGIC>MOL_PROPERTY
Coulomb
SciTegic.value.DoubleValue
139.249

@<SCITEGIC>MOL_PROPERTY
VdW
SciTegic.value.DoubleValue
-23.339

@<SCITEGIC>MOL_PROPERTY
VdW6
SciTegic.value.DoubleValue
-175.189

@<SCITEGIC>MOL_PROPERTY
VdW12
SciTegic.value.DoubleValue
151.850

@<SCITEGIC>MOL_PROPERTY
Bond
SciTegic.value.DoubleValue
4.451

@<SCITEGIC>MOL_PROPERTY
Angle
SciTegic.value.DoubleValue
12.816

@<SCITEGIC>MOL_PROPERTY
Pdih
SciTegic.value.DoubleValue
139.944

@<SCITEGIC>MOL_PROPERTY
Idih
SciTegic.value.DoubleValue
0.000

@<SCITEGIC>MOL_PROPERTY
Tether
SciTegic.value.DoubleValue
0.000

