@<TRIPOS>MOLECULE
CD_guest-s19_vm2_single.mol2 : vm2 host+ligand conformer 1
         143         148           2
SMALL
USER_CHARGES
 
@<TRIPOS>ATOM
       1    C1      16.179473   15.144670   21.834734 C.3        1 MOL1         0.2972
       2    H1      15.106079   14.944051   21.941614 H          1 MOL1         0.0751
       3    O1      16.443063   16.546191   21.625732 O.3        1 MOL1        -0.3740
       4    C2      16.932018   14.673875   23.105048 C.3        1 MOL1         0.1003
       5    H2      16.756220   13.594971   23.206003 H          1 MOL1         0.0783
       6    O2      16.445489   15.339929   24.278271 O.3        1 MOL1        -0.5519
       7    H3      17.094607   15.110040   24.980687 H          1 MOL1         0.3769
       8    C3      18.456008   14.892720   22.965694 C.3        1 MOL1         0.1053
       9    H4      18.648996   15.973533   22.975182 H          1 MOL1         0.0783
      10    O3      19.131944   14.266030   24.062767 O.3        1 MOL1        -0.5519
      11    H5      20.078232   14.174042   23.792623 H          1 MOL1         0.3769
      12    C4      18.994550   14.307073   21.637382 C.3        1 MOL1         0.1018
      13    H6      19.047139   13.214947   21.740985 H          1 MOL1         0.0783
      14    C5      18.114339   14.681016   20.410595 C.3        1 MOL1         0.1043
      15    H7      18.255270   15.748570   20.194708 H          1 MOL1         0.0783
      16    O4      16.720365   14.420006   20.710287 O.3        1 MOL1        -0.3740
      17    C6      18.464875   13.892831   19.128660 C.3        1 MOL1         0.0138
      18    H8      19.476475   14.165552   18.802007 H          1 MOL1         0.0794
      19    H9      17.774269   14.194848   18.329955 H          1 MOL1         0.0794
      20    O5      18.379600   12.481919   19.349748 O.3        1 MOL1        -0.5486
      21    H10     17.462672   12.307620   19.658483 H          1 MOL1         0.3769
      22    C7      14.673843   20.223349   20.957612 C.3        1 MOL1         0.2972
      23    H11     13.996924   21.055843   20.728674 H          1 MOL1         0.0751
      24    O6      16.033891   20.670004   21.138763 O.3        1 MOL1        -0.3740
      25    C8      14.212598   19.506875   22.251563 C.3        1 MOL1         0.1003
      26    H12     13.203009   19.115867   22.070007 H          1 MOL1         0.0783
      27    O7      14.175932   20.410759   23.364239 O.3        1 MOL1        -0.5519
      28    H13     14.050292   19.831510   24.149455 H          1 MOL1         0.3769
      29    C9      15.135986   18.310950   22.575471 C.3        1 MOL1         0.1053
      30    H14     16.125654   18.710214   22.831173 H          1 MOL1         0.0783
      31    O8      14.603382   17.578012   23.685541 O.3        1 MOL1        -0.5519
      32    H15     15.258155   16.865459   23.894074 H          1 MOL1         0.3769
      33    C10     15.296692   17.373912   21.352771 C.3        1 MOL1         0.1018
      34    H16     14.379066   16.783980   21.227968 H          1 MOL1         0.0783
      35    C11     15.582971   18.145670   20.035430 C.3        1 MOL1         0.1043
      36    H17     16.608959   18.529887   20.069622 H          1 MOL1         0.0783
      37    O9      14.654643   19.249753   19.892335 O.3        1 MOL1        -0.3740
      38    C12     15.454859   17.258913   18.777536 C.3        1 MOL1         0.0138
      39    H18     16.163909   16.424146   18.852164 H          1 MOL1         0.0794
      40    H19     15.735994   17.852488   17.897468 H          1 MOL1         0.0794
      41    O10     14.121146   16.761906   18.634325 O.3        1 MOL1        -0.5486
      42    H20     13.534095   17.550344   18.656387 H          1 MOL1         0.3769
      43    C13     18.557179   23.931505   20.625429 C.3        1 MOL1         0.2972
      44    H21     19.001514   24.900311   20.363688 H          1 MOL1         0.0751
      45    O11     19.567517   22.990026   21.040785 O.3        1 MOL1        -0.3740
      46    C14     17.488549   24.096913   21.742253 C.3        1 MOL1         0.1003
      47    H22     16.710821   24.760853   21.343862 H          1 MOL1         0.0783
      48    O12     18.052726   24.707080   22.913403 O.3        1 MOL1        -0.5519
      49    H23     18.667939   24.042651   23.312655 H          1 MOL1         0.3769
      50    C15     16.817835   22.735966   22.072074 C.3        1 MOL1         0.1053
      51    H24     17.568022   22.085341   22.543744 H          1 MOL1         0.0783
      52    O13     15.705666   22.927327   22.955791 O.3        1 MOL1        -0.5519
      53    H25     15.308308   22.035546   23.113279 H          1 MOL1         0.3769
      54    C16     16.307958   22.039484   20.784823 C.3        1 MOL1         0.1018
      55    H26     15.408402   22.563273   20.435597 H          1 MOL1         0.0783
      56    C17     17.360849   22.033637   19.645569 C.3        1 MOL1         0.1043
      57    H27     18.163284   21.336721   19.917238 H          1 MOL1         0.0783
      58    O14     17.897389   23.369321   19.471919 O.3        1 MOL1        -0.3740
      59    C18     16.783594   21.584075   18.285153 C.3        1 MOL1         0.0138
      60    H28     16.401969   20.559243   18.376353 H          1 MOL1         0.0794
      61    H29     17.596466   21.566091   17.547012 H          1 MOL1         0.0794
      62    O15     15.740443   22.463005   17.853227 O.3        1 MOL1        -0.5486
      63    H30     16.127140   23.366821   17.858697 H          1 MOL1         0.3769
      64    C19     23.484746   22.694046   22.326649 C.3        1 MOL1         0.2972
      65    H31     24.497553   22.850458   22.719110 H          1 MOL1         0.0751
      66    O16     23.356356   21.407762   21.682723 O.3        1 MOL1        -0.3740
      67    C20     22.441724   22.801239   23.469676 C.3        1 MOL1         0.1003
      68    H32     22.504119   23.819950   23.873582 H          1 MOL1         0.0783
      69    O17     22.752721   21.868854   24.518289 O.3        1 MOL1        -0.5519
      70    H33     21.905980   21.453480   24.830687 H          1 MOL1         0.3769
      71    C21     21.006259   22.604230   22.918929 C.3        1 MOL1         0.1053
      72    H34     20.911148   21.571127   22.569459 H          1 MOL1         0.0783
      73    O18     20.044253   22.865904   23.949182 O.3        1 MOL1        -0.5519
      74    H35     20.081608   22.091541   24.567604 H          1 MOL1         0.3769
      75    C22     20.728221   23.529004   21.706294 C.3        1 MOL1         0.1018
      76    H36     20.554582   24.548259   22.075477 H          1 MOL1         0.0783
      77    C23     21.890997   23.534922   20.673195 C.3        1 MOL1         0.1043
      78    H37     21.883767   22.573518   20.142411 H          1 MOL1         0.0783
      79    O19     23.160239   23.707998   21.351977 O.3        1 MOL1        -0.3740
      80    C24     21.770552   24.650583   19.611132 C.3        1 MOL1         0.0138
      81    H38     20.879219   24.465848   18.997147 H          1 MOL1         0.0794
      82    H39     22.641542   24.597565   18.944211 H          1 MOL1         0.0794
      83    O20     21.690983   25.942010   20.221234 O.3        1 MOL1        -0.5486
      84    H40     22.498056   26.035120   20.774876 H          1 MOL1         0.3769
      85    C25     25.188987   17.741202   21.276996 C.3        1 MOL1         0.2972
      86    H41     25.859641   16.887202   21.119604 H          1 MOL1         0.0751
      87    O21     23.807776   17.331225   21.366169 O.3        1 MOL1        -0.3740
      88    C26     25.577575   18.485732   22.576216 C.3        1 MOL1         0.1003
      89    H42     26.599769   18.863396   22.442803 H          1 MOL1         0.0783
      90    O22     25.545665   17.609913   23.711243 O.3        1 MOL1        -0.5519
      91    H43     25.642227   18.208051   24.486418 H          1 MOL1         0.3769
      92    C27     24.652381   19.699903   22.818944 C.3        1 MOL1         0.1053
      93    H44     23.646430   19.319411   23.046742 H          1 MOL1         0.0783
      94    O23     25.157804   20.441579   23.935124 O.3        1 MOL1        -0.5519
      95    H45     24.401587   20.990066   24.260947 H          1 MOL1         0.3769
      96    C28     24.553158   20.610994   21.562765 C.3        1 MOL1         0.1018
      97    H46     25.450211   21.240136   21.490819 H          1 MOL1         0.0783
      98    C29     24.395463   19.808918   20.240067 C.3        1 MOL1         0.1043
      99    H47     23.366351   19.437314   20.185488 H          1 MOL1         0.0783
     100    O24     25.314226   18.688631   20.197220 O.3        1 MOL1        -0.3740
     101    C30     24.645477   20.671246   18.983396 C.3        1 MOL1         0.0138
     102    H48     23.945473   21.517522   18.984096 H          1 MOL1         0.0794
     103    H49     24.431681   20.066086   18.092263 H          1 MOL1         0.0794
     104    O25     25.994399   21.146322   18.947336 O.3        1 MOL1        -0.5486
     105    H50     26.564587   20.350136   19.036733 H          1 MOL1         0.3769
     106    C31     21.318689   14.009527   20.939305 C.3        1 MOL1         0.2972
     107    H51     20.911023   13.023682   20.681053 H          1 MOL1         0.0751
     108    O26     20.298030   14.888477   21.448591 O.3        1 MOL1        -0.3740
     109    C32     22.428767   13.875863   22.014456 C.3        1 MOL1         0.1003
     110    H52     23.201315   13.212178   21.604875 H          1 MOL1         0.0783
     111    O27     21.913925   13.310031   23.228372 O.3        1 MOL1        -0.5519
     112    H53     22.653808   13.387686   23.871836 H          1 MOL1         0.3769
     113    C33     23.088476   15.243099   22.318391 C.3        1 MOL1         0.1053
     114    H54     22.346511   15.876922   22.824385 H          1 MOL1         0.0783
     115    O28     24.222596   15.039925   23.170224 O.3        1 MOL1        -0.5519
     116    H55     24.595848   15.935402   23.366876 H          1 MOL1         0.3769
     117    C34     23.526699   15.961536   21.017606 C.3        1 MOL1         0.1018
     118    H56     24.405424   15.452610   20.599878 H          1 MOL1         0.0783
     119    C35     22.399256   15.972698   19.953446 C.3        1 MOL1         0.1043
     120    H57     21.593156   16.627568   20.305847 H          1 MOL1         0.0783
     121    O29     21.896587   14.626995   19.769546 O.3        1 MOL1        -0.3740
     122    C36     22.868980   16.488842   18.575462 C.3        1 MOL1         0.0138
     123    H58     23.237861   17.516978   18.682321 H          1 MOL1         0.0794
     124    H59     22.005589   16.518675   17.897617 H          1 MOL1         0.0794
     125    O30     23.894664   15.650089   18.035916 O.3        1 MOL1        -0.5486
     126    H60     23.530859   14.736875   18.045867 H          1 MOL1         0.3769
     127    C1      19.439383   19.801844   25.243458 C.2        1 MOL1         0.6173
     128    O1      20.477519   20.437057   25.304103 O.co2      1 MOL1        -0.6755
     129    O2      18.640975   19.749849   26.157801 O.co2      1 MOL1        -0.6755
     130    C2      19.057843   19.155537   23.959376 C.2        1 MOL1        -0.1504
     131    H1      18.056260   18.737339   23.922950 H          1 MOL1         0.0814
     132    C3      19.865768   19.092057   22.877221 C.2        1 MOL1        -0.1394
     133    H2      20.884013   19.474974   22.919703 H          1 MOL1         0.0817
     134    C4      19.431793   18.518353   21.547787 C.3        1 MOL1        -0.1849
     135    H3      18.356285   18.683235   21.416717 H          1 MOL1         0.0736
     136    H4      19.592842   17.435590   21.539579 H          1 MOL1         0.0736
     137    C5      20.196742   19.159990   20.373923 C.3        1 MOL1        -0.1866
     138    H5      20.101132   20.252765   20.420273 H          1 MOL1         0.0738
     139    H6      21.264093   18.934874   20.476990 H          1 MOL1         0.0738
     140    C6      19.687305   18.649101   19.010912 C.3        1 MOL1        -0.2879
     141    H7      18.636833   18.924906   18.857823 H          1 MOL1         0.0750
     142    H8      20.274004   19.084536   18.192057 H          1 MOL1         0.0750
     143    H9      19.766755   17.556605   18.944650 H          1 MOL1         0.0750
@<TRIPOS>BOND
    1     1     2    1
    2     1     3    1
    3     1     4    1
    4     4     5    1
    5     4     6    1
    6     6     7    1
    7     4     8    1
    8     8     9    1
    9     8    10    1
   10    10    11    1
   11     8    12    1
   12    12    13    1
   13    12    14    1
   14    14    15    1
   15     1    16    1
   16    14    16    1
   17    14    17    1
   18    17    18    1
   19    17    19    1
   20    17    20    1
   21    20    21    1
   22    22    23    1
   23    22    24    1
   24    22    25    1
   25    25    26    1
   26    25    27    1
   27    27    28    1
   28    25    29    1
   29    29    30    1
   30    29    31    1
   31    31    32    1
   32     3    33    1
   33    29    33    1
   34    33    34    1
   35    33    35    1
   36    35    36    1
   37    22    37    1
   38    35    37    1
   39    35    38    1
   40    38    39    1
   41    38    40    1
   42    38    41    1
   43    41    42    1
   44    43    44    1
   45    43    45    1
   46    43    46    1
   47    46    47    1
   48    46    48    1
   49    48    49    1
   50    46    50    1
   51    50    51    1
   52    50    52    1
   53    52    53    1
   54    24    54    1
   55    50    54    1
   56    54    55    1
   57    54    56    1
   58    56    57    1
   59    43    58    1
   60    56    58    1
   61    56    59    1
   62    59    60    1
   63    59    61    1
   64    59    62    1
   65    62    63    1
   66    64    65    1
   67    64    66    1
   68    64    67    1
   69    67    68    1
   70    67    69    1
   71    69    70    1
   72    67    71    1
   73    71    72    1
   74    71    73    1
   75    73    74    1
   76    45    75    1
   77    71    75    1
   78    75    76    1
   79    75    77    1
   80    77    78    1
   81    64    79    1
   82    77    79    1
   83    77    80    1
   84    80    81    1
   85    80    82    1
   86    80    83    1
   87    83    84    1
   88    85    86    1
   89    85    87    1
   90    85    88    1
   91    88    89    1
   92    88    90    1
   93    90    91    1
   94    88    92    1
   95    92    93    1
   96    92    94    1
   97    94    95    1
   98    66    96    1
   99    92    96    1
  100    96    97    1
  101    96    98    1
  102    98    99    1
  103    85   100    1
  104    98   100    1
  105    98   101    1
  106   101   102    1
  107   101   103    1
  108   101   104    1
  109   104   105    1
  110   106   107    1
  111    12   108    1
  112   106   108    1
  113   106   109    1
  114   109   110    1
  115   109   111    1
  116   111   112    1
  117   109   113    1
  118   113   114    1
  119   113   115    1
  120   115   116    1
  121    87   117    1
  122   113   117    1
  123   117   118    1
  124   117   119    1
  125   119   120    1
  126   106   121    1
  127   119   121    1
  128   119   122    1
  129   122   123    1
  130   122   124    1
  131   122   125    1
  132   125   126    1
  133   127   128    1
  134   127   129    2
  135   127   130    1
  136   130   131    1
  137   130   132    2
  138   132   133    1
  139   132   134    1
  140   134   135    1
  141   134   136    1
  142   134   137    1
  143   137   138    1
  144   137   139    1
  145   137   140    1
  146   140   141    1
  147   140   142    1
  148   140   143    1
@<TRIPOS>SUBSTRUCTURE
       1 MOL1            1 RESIDUE      1      MOL     
       2 MOL1          143 RESIDUE      1      MOL     
@<SCITEGIC>MOL_PROPERTY
VM2 Rank
SciTegic.value.IntegerValue
1

@<SCITEGIC>MOL_PROPERTY
Conf_Id
SciTegic.value.IntegerValue
21873

@<SCITEGIC>MOL_PROPERTY
Probability
SciTegic.value.DoubleValue
2.05

@<SCITEGIC>MOL_PROPERTY
Sum Probability
SciTegic.value.DoubleValue
2.05

@<SCITEGIC>MOL_PROPERTY
Delta G
SciTegic.value.DoubleValue
0.000

@<SCITEGIC>MOL_PROPERTY
G
SciTegic.value.DoubleValue
487.611

@<SCITEGIC>MOL_PROPERTY
E
SciTegic.value.DoubleValue
306.038

@<SCITEGIC>MOL_PROPERTY
-TS
SciTegic.value.DoubleValue
181.573

@<SCITEGIC>MOL_PROPERTY
U+W
SciTegic.value.DoubleValue
179.950

@<SCITEGIC>MOL_PROPERTY
U
SciTegic.value.DoubleValue
254.782

@<SCITEGIC>MOL_PROPERTY
W
SciTegic.value.DoubleValue
-74.832

@<SCITEGIC>MOL_PROPERTY
W(PB)
SciTegic.value.DoubleValue
-80.968

@<SCITEGIC>MOL_PROPERTY
W(SA)
SciTegic.value.DoubleValue
6.136

@<SCITEGIC>MOL_PROPERTY
Valence
SciTegic.value.DoubleValue
146.368

@<SCITEGIC>MOL_PROPERTY
Coulomb
SciTegic.value.DoubleValue
130.334

@<SCITEGIC>MOL_PROPERTY
VdW
SciTegic.value.DoubleValue
-21.921

@<SCITEGIC>MOL_PROPERTY
VdW6
SciTegic.value.DoubleValue
-171.523

@<SCITEGIC>MOL_PROPERTY
VdW12
SciTegic.value.DoubleValue
149.602

@<SCITEGIC>MOL_PROPERTY
Bond
SciTegic.value.DoubleValue
4.507

@<SCITEGIC>MOL_PROPERTY
Angle
SciTegic.value.DoubleValue
11.407

@<SCITEGIC>MOL_PROPERTY
Pdih
SciTegic.value.DoubleValue
130.431

@<SCITEGIC>MOL_PROPERTY
Idih
SciTegic.value.DoubleValue
0.023

@<SCITEGIC>MOL_PROPERTY
Tether
SciTegic.value.DoubleValue
0.000

@<TRIPOS>MOLECULE
CD_guest-s19_vm2_single.mol2 : vm2 host+ligand conformer 2
         143         148           2
SMALL
USER_CHARGES
 
@<TRIPOS>ATOM
       1    C1      16.200813   15.130563   21.760721 C.3        1 MOL1         0.2972
       2    H1      15.126115   14.923624   21.837961 H          1 MOL1         0.0751
       3    O1      16.465139   16.539922   21.615470 O.3        1 MOL1        -0.3740
       4    C2      16.929240   14.612245   23.026590 C.3        1 MOL1         0.1003
       5    H2      16.752524   13.530300   23.083921 H          1 MOL1         0.0783
       6    O2      16.419617   15.234948   24.213925 O.3        1 MOL1        -0.5519
       7    H3      17.051974   14.974926   24.921059 H          1 MOL1         0.3769
       8    C3      18.455484   14.837244   22.924771 C.3        1 MOL1         0.1053
       9    H4      18.646561   15.917225   22.978141 H          1 MOL1         0.0783
      10    O3      19.112309   14.170568   24.009910 O.3        1 MOL1        -0.5519
      11    H5      20.065504   14.099136   23.758306 H          1 MOL1         0.3769
      12    C4      19.020396   14.303101   21.585948 C.3        1 MOL1         0.1018
      13    H6      19.070300   13.207703   21.647498 H          1 MOL1         0.0783
      14    C5      18.164819   14.726519   20.358038 C.3        1 MOL1         0.1043
      15    H7      18.308098   15.802118   20.188916 H          1 MOL1         0.0783
      16    O4      16.765842   14.452237   20.619369 O.3        1 MOL1        -0.3740
      17    C6      18.541226   13.990961   19.052398 C.3        1 MOL1         0.0138
      18    H8      19.558741   14.276497   18.756863 H          1 MOL1         0.0794
      19    H9      17.866285   14.325120   18.253126 H          1 MOL1         0.0794
      20    O5      18.452419   12.572273   19.214492 O.3        1 MOL1        -0.5486
      21    H10     17.529958   12.386018   19.498771 H          1 MOL1         0.3769
      22    C7      14.707634   20.231864   20.981291 C.3        1 MOL1         0.2972
      23    H11     14.028202   21.065498   20.764232 H          1 MOL1         0.0751
      24    O6      16.069642   20.678172   21.147072 O.3        1 MOL1        -0.3740
      25    C8      14.260855   19.510899   22.277957 C.3        1 MOL1         0.1003
      26    H12     13.247239   19.125160   22.107985 H          1 MOL1         0.0783
      27    O7      14.242642   20.409881   23.395106 O.3        1 MOL1        -0.5519
      28    H13     14.128519   19.827386   24.179662 H          1 MOL1         0.3769
      29    C9      15.182778   18.309213   22.584036 C.3        1 MOL1         0.1053
      30    H14     16.177493   18.702478   22.828262 H          1 MOL1         0.0783
      31    O8      14.661542   17.571776   23.696602 O.3        1 MOL1        -0.5519
      32    H15     15.299547   16.835600   23.872412 H          1 MOL1         0.3769
      33    C10     15.323215   17.377754   21.355262 C.3        1 MOL1         0.1018
      34    H16     14.398996   16.796690   21.237953 H          1 MOL1         0.0783
      35    C11     15.603086   18.156150   20.040708 C.3        1 MOL1         0.1043
      36    H17     16.630711   18.536957   20.071619 H          1 MOL1         0.0783
      37    O9      14.676294   19.263381   19.911623 O.3        1 MOL1        -0.3740
      38    C12     15.462925   17.278942   18.777411 C.3        1 MOL1         0.0138
      39    H18     16.174134   16.444988   18.837418 H          1 MOL1         0.0794
      40    H19     15.733584   17.879869   17.899049 H          1 MOL1         0.0794
      41    O10     14.128519   16.780867   18.644622 O.3        1 MOL1        -0.5486
      42    H20     13.540635   17.568353   18.675806 H          1 MOL1         0.3769
      43    C13     18.582730   23.944714   20.617441 C.3        1 MOL1         0.2972
      44    H21     19.026399   24.911972   20.348892 H          1 MOL1         0.0751
      45    O11     19.592396   23.010589   21.050932 O.3        1 MOL1        -0.3740
      46    C14     17.503972   24.118530   21.723209 C.3        1 MOL1         0.1003
      47    H22     16.725989   24.773071   21.310033 H          1 MOL1         0.0783
      48    O12     18.055009   24.746777   22.890963 O.3        1 MOL1        -0.5519
      49    H23     18.668833   24.090089   23.304844 H          1 MOL1         0.3769
      50    C15     16.838104   22.757817   22.063962 C.3        1 MOL1         0.1053
      51    H24     17.588793   22.116233   22.547075 H          1 MOL1         0.0783
      52    O13     15.719541   22.952047   22.938972 O.3        1 MOL1        -0.5519
      53    H25     15.335299   22.057866   23.114555 H          1 MOL1         0.3769
      54    C16     16.340169   22.045244   20.780780 C.3        1 MOL1         0.1018
      55    H26     15.440816   22.561029   20.419311 H          1 MOL1         0.0783
      56    C17     17.400305   22.032566   19.648297 C.3        1 MOL1         0.1043
      57    H27     18.203260   21.341194   19.931563 H          1 MOL1         0.0783
      58    O14     17.933623   23.368326   19.464898 O.3        1 MOL1        -0.3740
      59    C18     16.833022   21.567862   18.288792 C.3        1 MOL1         0.0138
      60    H28     16.451262   20.543892   18.388467 H          1 MOL1         0.0794
      61    H29     17.651149   21.542463   17.556690 H          1 MOL1         0.0794
      62    O15     15.792434   22.441338   17.839994 O.3        1 MOL1        -0.5486
      63    H30     16.178128   23.345599   17.840063 H          1 MOL1         0.3769
      64    C19     23.496386   22.733493   22.382103 C.3        1 MOL1         0.2972
      65    H31     24.504977   22.894443   22.783473 H          1 MOL1         0.0751
      66    O16     23.373814   21.439751   21.753054 O.3        1 MOL1        -0.3740
      67    C20     22.440975   22.856536   23.511991 C.3        1 MOL1         0.1003
      68    H32     22.498504   23.880916   23.902055 H          1 MOL1         0.0783
      69    O17     22.741126   21.939294   24.576839 O.3        1 MOL1        -0.5519
      70    H33     21.891078   21.528752   24.886653 H          1 MOL1         0.3769
      71    C21     21.011712   22.650577   22.948858 C.3        1 MOL1         0.1053
      72    H34     20.920942   21.612661   22.612469 H          1 MOL1         0.0783
      73    O18     20.039141   22.925232   23.965642 O.3        1 MOL1        -0.5519
      74    H35     20.069974   22.158773   24.594199 H          1 MOL1         0.3769
      75    C22     20.746132   23.558824   21.721032 C.3        1 MOL1         0.1018
      76    H36     20.568517   24.583022   22.074345 H          1 MOL1         0.0783
      77    C23     21.919600   23.550529   20.699805 C.3        1 MOL1         0.1043
      78    H37     21.916812   22.582044   20.181642 H          1 MOL1         0.0783
      79    O19     23.183116   23.732518   21.388384 O.3        1 MOL1        -0.3740
      80    C24     21.809052   24.651682   19.621684 C.3        1 MOL1         0.0138
      81    H38     20.921849   24.460047   19.003813 H          1 MOL1         0.0794
      82    H39     22.684622   24.588090   18.961786 H          1 MOL1         0.0794
      83    O20     21.727331   25.951400   20.213632 O.3        1 MOL1        -0.5486
      84    H40     22.529499   26.050129   20.773381 H          1 MOL1         0.3769
      85    C25     25.207568   17.769081   21.393451 C.3        1 MOL1         0.2972
      86    H41     25.881962   16.915518   21.250109 H          1 MOL1         0.0751
      87    O21     23.825254   17.358712   21.454349 O.3        1 MOL1        -0.3740
      88    C26     25.566604   18.511428   22.701685 C.3        1 MOL1         0.1003
      89    H42     26.594191   18.882690   22.594415 H          1 MOL1         0.0783
      90    O22     25.500473   17.634636   23.834815 O.3        1 MOL1        -0.5519
      91    H43     25.583444   18.230363   24.613245 H          1 MOL1         0.3769
      92    C27     24.642472   19.731448   22.920025 C.3        1 MOL1         0.1053
      93    H44     23.631523   19.356886   23.135359 H          1 MOL1         0.0783
      94    O23     25.135170   20.479967   24.037026 O.3        1 MOL1        -0.5519
      95    H45     24.378143   21.036892   24.346303 H          1 MOL1         0.3769
      96    C28     24.566199   20.634619   21.656045 C.3        1 MOL1         0.1018
      97    H46     25.469112   21.256086   21.589335 H          1 MOL1         0.0783
      98    C29     24.421508   19.827120   20.336918 C.3        1 MOL1         0.1043
      99    H47     23.393116   19.455581   20.264900 H          1 MOL1         0.0783
     100    O24     25.355319   18.719333   20.319091 O.3        1 MOL1        -0.3740
     101    C30     24.704660   20.695525   19.094059 C.3        1 MOL1         0.0138
     102    H48     25.751155   21.027896   19.114834 H          1 MOL1         0.0794
     103    H49     24.068531   21.590309   19.125527 H          1 MOL1         0.0794
     104    O25     24.438747   19.948866   17.904800 O.3        1 MOL1        -0.5486
     105    H50     24.927955   19.100440   17.998194 H          1 MOL1         0.3769
     106    C31     21.360355   14.032083   20.927133 C.3        1 MOL1         0.2972
     107    H51     20.963897   13.048981   20.642402 H          1 MOL1         0.0751
     108    O26     20.327529   14.890178   21.448204 O.3        1 MOL1        -0.3740
     109    C32     22.460809   13.882998   22.010613 C.3        1 MOL1         0.1003
     110    H52     23.242981   13.234727   21.594681 H          1 MOL1         0.0783
     111    O27     21.937435   13.286454   23.206153 O.3        1 MOL1        -0.5519
     112    H53     22.668843   13.357269   23.859968 H          1 MOL1         0.3769
     113    C33     23.105754   15.248707   22.351561 C.3        1 MOL1         0.1053
     114    H54     22.352529   15.865216   22.862270 H          1 MOL1         0.0783
     115    O28     24.232636   15.039831   23.211832 O.3        1 MOL1        -0.5519
     116    H55     24.588748   15.935731   23.436555 H          1 MOL1         0.3769
     117    C34     23.550722   15.997887   21.070889 C.3        1 MOL1         0.1018
     118    H56     24.434062   15.501708   20.647667 H          1 MOL1         0.0783
     119    C35     22.429564   16.028187   20.000674 C.3        1 MOL1         0.1043
     120    H57     21.614308   16.662521   20.368520 H          1 MOL1         0.0783
     121    O29     21.944133   14.682434   19.777835 O.3        1 MOL1        -0.3740
     122    C36     22.895543   16.592212   18.640272 C.3        1 MOL1         0.0138
     123    H58     23.210621   17.634161   18.774747 H          1 MOL1         0.0794
     124    H59     22.042239   16.596545   17.949199 H          1 MOL1         0.0794
     125    O30     23.969418   15.817166   18.098984 O.3        1 MOL1        -0.5486
     126    H60     23.645082   14.890161   18.062911 H          1 MOL1         0.3769
     127    C1      19.423078   19.877531   25.298717 C.2        1 MOL1         0.6173
     128    O1      18.618918   19.836720   26.208595 O.co2      1 MOL1        -0.6755
     129    O2      20.459254   20.516106   25.356952 O.co2      1 MOL1        -0.6755
     130    C2      19.051742   19.210420   24.022267 C.2        1 MOL1        -0.1504
     131    H1      18.052080   18.787980   23.986663 H          1 MOL1         0.0814
     132    C3      19.866713   19.133071   22.946277 C.2        1 MOL1        -0.1394
     133    H2      20.883073   19.520789   22.989749 H          1 MOL1         0.0817
     134    C4      19.445684   18.536308   21.622516 C.3        1 MOL1        -0.1849
     135    H3      18.369249   18.688154   21.481214 H          1 MOL1         0.0736
     136    H4      19.618202   17.455002   21.630558 H          1 MOL1         0.0736
     137    C5      20.212594   19.170888   20.445717 C.3        1 MOL1        -0.1866
     138    H5      20.112615   20.263518   20.482166 H          1 MOL1         0.0738
     139    H6      21.281079   18.953067   20.554549 H          1 MOL1         0.0738
     140    C6      19.711788   18.647437   19.084199 C.3        1 MOL1        -0.2879
     141    H7      19.791691   17.554600   19.027658 H          1 MOL1         0.0750
     142    H8      18.662831   18.922418   18.920945 H          1 MOL1         0.0750
     143    H9      20.304958   19.075642   18.265956 H          1 MOL1         0.0750
@<TRIPOS>BOND
    1     1     2    1
    2     1     3    1
    3     1     4    1
    4     4     5    1
    5     4     6    1
    6     6     7    1
    7     4     8    1
    8     8     9    1
    9     8    10    1
   10    10    11    1
   11     8    12    1
   12    12    13    1
   13    12    14    1
   14    14    15    1
   15     1    16    1
   16    14    16    1
   17    14    17    1
   18    17    18    1
   19    17    19    1
   20    17    20    1
   21    20    21    1
   22    22    23    1
   23    22    24    1
   24    22    25    1
   25    25    26    1
   26    25    27    1
   27    27    28    1
   28    25    29    1
   29    29    30    1
   30    29    31    1
   31    31    32    1
   32     3    33    1
   33    29    33    1
   34    33    34    1
   35    33    35    1
   36    35    36    1
   37    22    37    1
   38    35    37    1
   39    35    38    1
   40    38    39    1
   41    38    40    1
   42    38    41    1
   43    41    42    1
   44    43    44    1
   45    43    45    1
   46    43    46    1
   47    46    47    1
   48    46    48    1
   49    48    49    1
   50    46    50    1
   51    50    51    1
   52    50    52    1
   53    52    53    1
   54    24    54    1
   55    50    54    1
   56    54    55    1
   57    54    56    1
   58    56    57    1
   59    43    58    1
   60    56    58    1
   61    56    59    1
   62    59    60    1
   63    59    61    1
   64    59    62    1
   65    62    63    1
   66    64    65    1
   67    64    66    1
   68    64    67    1
   69    67    68    1
   70    67    69    1
   71    69    70    1
   72    67    71    1
   73    71    72    1
   74    71    73    1
   75    73    74    1
   76    45    75    1
   77    71    75    1
   78    75    76    1
   79    75    77    1
   80    77    78    1
   81    64    79    1
   82    77    79    1
   83    77    80    1
   84    80    81    1
   85    80    82    1
   86    80    83    1
   87    83    84    1
   88    85    86    1
   89    85    87    1
   90    85    88    1
   91    88    89    1
   92    88    90    1
   93    90    91    1
   94    88    92    1
   95    92    93    1
   96    92    94    1
   97    94    95    1
   98    66    96    1
   99    92    96    1
  100    96    97    1
  101    96    98    1
  102    98    99    1
  103    85   100    1
  104    98   100    1
  105    98   101    1
  106   101   102    1
  107   101   103    1
  108   101   104    1
  109   104   105    1
  110   106   107    1
  111    12   108    1
  112   106   108    1
  113   106   109    1
  114   109   110    1
  115   109   111    1
  116   111   112    1
  117   109   113    1
  118   113   114    1
  119   113   115    1
  120   115   116    1
  121    87   117    1
  122   113   117    1
  123   117   118    1
  124   117   119    1
  125   119   120    1
  126   106   121    1
  127   119   121    1
  128   119   122    1
  129   122   123    1
  130   122   124    1
  131   122   125    1
  132   125   126    1
  133   127   128    1
  134   127   129    2
  135   127   130    1
  136   130   131    1
  137   130   132    2
  138   132   133    1
  139   132   134    1
  140   134   135    1
  141   134   136    1
  142   134   137    1
  143   137   138    1
  144   137   139    1
  145   137   140    1
  146   140   141    1
  147   140   142    1
  148   140   143    1
@<TRIPOS>SUBSTRUCTURE
       1 MOL1            1 RESIDUE      1      MOL     
       2 MOL1          143 RESIDUE      1      MOL     
@<SCITEGIC>MOL_PROPERTY
VM2 Rank
SciTegic.value.IntegerValue
2

@<SCITEGIC>MOL_PROPERTY
Conf_Id
SciTegic.value.IntegerValue
19623

@<SCITEGIC>MOL_PROPERTY
Probability
SciTegic.value.DoubleValue
1.30

@<SCITEGIC>MOL_PROPERTY
Sum Probability
SciTegic.value.DoubleValue
3.34

@<SCITEGIC>MOL_PROPERTY
Delta G
SciTegic.value.DoubleValue
0.273

@<SCITEGIC>MOL_PROPERTY
G
SciTegic.value.DoubleValue
487.885

@<SCITEGIC>MOL_PROPERTY
E
SciTegic.value.DoubleValue
306.126

@<SCITEGIC>MOL_PROPERTY
-TS
SciTegic.value.DoubleValue
181.759

@<SCITEGIC>MOL_PROPERTY
U+W
SciTegic.value.DoubleValue
180.037

@<SCITEGIC>MOL_PROPERTY
U
SciTegic.value.DoubleValue
254.482

@<SCITEGIC>MOL_PROPERTY
W
SciTegic.value.DoubleValue
-74.445

@<SCITEGIC>MOL_PROPERTY
W(PB)
SciTegic.value.DoubleValue
-80.549

@<SCITEGIC>MOL_PROPERTY
W(SA)
SciTegic.value.DoubleValue
6.104

@<SCITEGIC>MOL_PROPERTY
Valence
SciTegic.value.DoubleValue
146.409

@<SCITEGIC>MOL_PROPERTY
Coulomb
SciTegic.value.DoubleValue
130.607

@<SCITEGIC>MOL_PROPERTY
VdW
SciTegic.value.DoubleValue
-22.535

@<SCITEGIC>MOL_PROPERTY
VdW6
SciTegic.value.DoubleValue
-171.831

@<SCITEGIC>MOL_PROPERTY
VdW12
SciTegic.value.DoubleValue
149.296

@<SCITEGIC>MOL_PROPERTY
Bond
SciTegic.value.DoubleValue
4.470

@<SCITEGIC>MOL_PROPERTY
Angle
SciTegic.value.DoubleValue
11.282

@<SCITEGIC>MOL_PROPERTY
Pdih
SciTegic.value.DoubleValue
130.636

@<SCITEGIC>MOL_PROPERTY
Idih
SciTegic.value.DoubleValue
0.021

@<SCITEGIC>MOL_PROPERTY
Tether
SciTegic.value.DoubleValue
0.000

@<TRIPOS>MOLECULE
CD_guest-s19_vm2_single.mol2 : vm2 host+ligand conformer 3
         143         148           2
SMALL
USER_CHARGES
 
@<TRIPOS>ATOM
       1    C1      16.378904   15.171246   20.673150 C.3        1 MOL1         0.2972
       2    H1      15.338069   15.050963   20.346092 H          1 MOL1         0.0751
       3    O1      16.678765   16.548672   20.982290 O.3        1 MOL1        -0.3740
       4    C2      16.683945   14.277487   21.905529 C.3        1 MOL1         0.1003
       5    H2      16.535192   13.235133   21.594642 H          1 MOL1         0.0783
       6    O2      15.814660   14.560944   23.008129 O.3        1 MOL1        -0.5519
       7    H3      16.157349   14.006731   23.745552 H          1 MOL1         0.3769
       8    C3      18.159392   14.434451   22.341804 C.3        1 MOL1         0.1053
       9    H4      18.302630   15.462163   22.704322 H          1 MOL1         0.0783
      10    O3      18.454603   13.504949   23.391459 O.3        1 MOL1        -0.5519
      11    H5      19.348810   13.750327   23.737945 H          1 MOL1         0.3769
      12    C4      19.118998   14.205683   21.146593 C.3        1 MOL1         0.1018
      13    H6      19.169638   13.134025   20.911800 H          1 MOL1         0.0783
      14    C5      18.686268   14.976005   19.872162 C.3        1 MOL1         0.1043
      15    H7      18.887604   16.043079   20.022740 H          1 MOL1         0.0783
      16    O4      17.275413   14.753627   19.621992 O.3        1 MOL1        -0.3740
      17    C6      19.459120   14.504427   18.622929 C.3        1 MOL1         0.0138
      18    H8      19.206987   13.455803   18.416068 H          1 MOL1         0.0794
      19    H9      20.537383   14.555198   18.820740 H          1 MOL1         0.0794
      20    O5      19.130692   15.328955   17.503701 O.3        1 MOL1        -0.5486
      21    H10     18.149298   15.376306   17.479889 H          1 MOL1         0.3769
      22    C7      14.882021   20.237335   21.629725 C.3        1 MOL1         0.2972
      23    H11     14.189996   21.061142   21.845758 H          1 MOL1         0.0751
      24    O6      16.146375   20.721445   21.132674 O.3        1 MOL1        -0.3740
      25    C8      15.119333   19.386558   22.903713 C.3        1 MOL1         0.1003
      26    H12     14.147151   18.974157   23.203559 H          1 MOL1         0.0783
      27    O7      15.642207   20.169871   23.984345 O.3        1 MOL1        -0.5519
      28    H13     16.013674   19.510515   24.615199 H          1 MOL1         0.3769
      29    C9      16.060458   18.197702   22.609376 C.3        1 MOL1         0.1053
      30    H14     17.057435   18.594292   22.374187 H          1 MOL1         0.0783
      31    O8      16.116114   17.359230   23.768800 O.3        1 MOL1        -0.5519
      32    H15     16.229095   16.434156   23.444859 H          1 MOL1         0.3769
      33    C10     15.571492   17.376596   21.391065 C.3        1 MOL1         0.1018
      34    H16     14.704199   16.775997   21.697126 H          1 MOL1         0.0783
      35    C11     15.190943   18.282703   20.185550 C.3        1 MOL1         0.1043
      36    H17     16.114423   18.701822   19.764242 H          1 MOL1         0.0783
      37    O9      14.324042   19.359214   20.627288 O.3        1 MOL1        -0.3740
      38    C12     14.462836   17.526488   19.052229 C.3        1 MOL1         0.0138
      39    H18     15.146564   16.783062   18.621437 H          1 MOL1         0.0794
      40    H19     14.213383   18.240175   18.255616 H          1 MOL1         0.0794
      41    O10     13.277856   16.886324   19.534623 O.3        1 MOL1        -0.5486
      42    H20     12.723668   17.595757   19.929729 H          1 MOL1         0.3769
      43    C13     18.414228   24.125335   20.734449 C.3        1 MOL1         0.2972
      44    H21     18.858840   25.106817   20.525110 H          1 MOL1         0.0751
      45    O11     19.423829   23.141594   21.044783 O.3        1 MOL1        -0.3740
      46    C14     17.397788   24.209607   21.901834 C.3        1 MOL1         0.1003
      47    H22     16.582071   24.866752   21.574361 H          1 MOL1         0.0783
      48    O12     18.007166   24.779935   23.070589 O.3        1 MOL1        -0.5519
      49    H23     18.666037   24.119893   23.401567 H          1 MOL1         0.3769
      50    C15     16.790909   22.810222   22.191406 C.3        1 MOL1         0.1053
      51    H24     17.587895   22.172128   22.599148 H          1 MOL1         0.0783
      52    O13     15.728032   22.926415   23.144302 O.3        1 MOL1        -0.5519
      53    H25     15.636092   22.031922   23.555450 H          1 MOL1         0.3769
      54    C16     16.247860   22.140371   20.895280 C.3        1 MOL1         0.1018
      55    H26     15.271121   22.574523   20.643868 H          1 MOL1         0.0783
      56    C17     17.189096   22.302083   19.668769 C.3        1 MOL1         0.1043
      57    H27     18.032976   21.611514   19.781329 H          1 MOL1         0.0783
      58    O14     17.685775   23.660069   19.580628 O.3        1 MOL1        -0.3740
      59    C18     16.492747   21.963863   18.332226 C.3        1 MOL1         0.0138
      60    H28     16.119161   20.931879   18.374782 H          1 MOL1         0.0794
      61    H29     17.236246   22.012470   17.525544 H          1 MOL1         0.0794
      62    O15     15.416170   22.868966   18.069428 O.3        1 MOL1        -0.5486
      63    H30     15.799538   23.772146   18.133795 H          1 MOL1         0.3769
      64    C19     23.390632   22.651313   22.044653 C.3        1 MOL1         0.2972
      65    H31     24.439567   22.751359   22.349999 H          1 MOL1         0.0751
      66    O16     23.130331   21.366816   21.436853 O.3        1 MOL1        -0.3740
      67    C20     22.453002   22.816914   23.266815 C.3        1 MOL1         0.1003
      68    H32     22.591526   23.835395   23.651879 H          1 MOL1         0.0783
      69    O17     22.820196   21.880052   24.293491 O.3        1 MOL1        -0.5519
      70    H33     21.991202   21.542758   24.723780 H          1 MOL1         0.3769
      71    C21     20.969695   22.677781   22.830130 C.3        1 MOL1         0.1053
      72    H34     20.799123   21.650900   22.488884 H          1 MOL1         0.0783
      73    O18     20.101597   22.973476   23.932107 O.3        1 MOL1        -0.5519
      74    H35     20.164754   22.203848   24.555920 H          1 MOL1         0.3769
      75    C22     20.644137   23.622284   21.641165 C.3        1 MOL1         0.1018
      76    H36     20.538177   24.645614   22.025004 H          1 MOL1         0.0783
      77    C23     21.723565   23.584223   20.521810 C.3        1 MOL1         0.1043
      78    H37     21.626801   22.631195   19.985140 H          1 MOL1         0.0783
      79    O19     23.048808   23.682871   21.096205 O.3        1 MOL1        -0.3740
      80    C24     21.575746   24.718326   19.482959 C.3        1 MOL1         0.0138
      81    H38     20.627355   24.589727   18.944718 H          1 MOL1         0.0794
      82    H39     22.383946   24.627487   18.744842 H          1 MOL1         0.0794
      83    O20     21.617576   26.003912   20.109181 O.3        1 MOL1        -0.5486
      84    H40     22.471970   26.046031   20.593759 H          1 MOL1         0.3769
      85    C25     24.974111   17.644898   21.063463 C.3        1 MOL1         0.2972
      86    H41     25.657429   16.818038   20.830644 H          1 MOL1         0.0751
      87    O21     23.677912   17.166284   21.468318 O.3        1 MOL1        -0.3740
      88    C26     25.545234   18.531513   22.198349 C.3        1 MOL1         0.1003
      89    H42     26.507132   18.930036   21.850408 H          1 MOL1         0.0783
      90    O22     25.753685   17.776967   23.400235 O.3        1 MOL1        -0.5519
      91    H43     25.995424   18.450595   24.075303 H          1 MOL1         0.3769
      92    C27     24.610462   19.729661   22.491383 C.3        1 MOL1         0.1053
      93    H44     23.674660   19.334857   22.910902 H          1 MOL1         0.0783
      94    O23     25.248564   20.582124   23.449612 O.3        1 MOL1        -0.5519
      95    H45     24.518203   21.093759   23.878727 H          1 MOL1         0.3769
      96    C28     24.264652   20.510666   21.190560 C.3        1 MOL1         0.1018
      97    H46     25.136105   21.092752   20.863043 H          1 MOL1         0.0783
      98    C29     23.833642   19.556030   20.043583 C.3        1 MOL1         0.1043
      99    H47     22.845992   19.142421   20.287898 H          1 MOL1         0.0783
     100    O24     24.796307   18.481912   19.901849 O.3        1 MOL1        -0.3740
     101    C30     23.719885   20.265473   18.676060 C.3        1 MOL1         0.0138
     102    H48     22.979536   21.072697   18.750584 H          1 MOL1         0.0794
     103    H49     23.346736   19.544863   17.936172 H          1 MOL1         0.0794
     104    O25     24.984586   20.791278   18.262318 O.3        1 MOL1        -0.5486
     105    H50     25.616792   20.039509   18.303876 H          1 MOL1         0.3769
     106    C31     21.408697   13.773782   21.896115 C.3        1 MOL1         0.2972
     107    H51     20.988609   12.768918   22.030242 H          1 MOL1         0.0751
     108    O26     20.397238   14.734622   21.536531 O.3        1 MOL1        -0.3740
     109    C32     22.098032   14.239550   23.200814 C.3        1 MOL1         0.1003
     110    H52     22.924330   13.544961   23.400675 H          1 MOL1         0.0783
     111    O27     21.186339   14.216428   24.307784 O.3        1 MOL1        -0.5519
     112    H53     21.652577   14.707151   25.021556 H          1 MOL1         0.3769
     113    C33     22.698007   15.654139   23.032178 C.3        1 MOL1         0.1053
     114    H54     21.868993   16.368991   22.944251 H          1 MOL1         0.0783
     115    O28     23.493335   15.971022   24.180639 O.3        1 MOL1        -0.5519
     116    H55     24.082338   16.719308   23.916806 H          1 MOL1         0.3769
     117    C34     23.573534   15.760320   21.756865 C.3        1 MOL1         0.1018
     118    H56     24.553223   15.312478   21.971327 H          1 MOL1         0.0783
     119    C35     22.938127   15.081912   20.508404 C.3        1 MOL1         0.1043
     120    H57     22.125401   15.726285   20.146932 H          1 MOL1         0.0783
     121    O29     22.408152   13.776969   20.855689 O.3        1 MOL1        -0.3740
     122    C36     23.928904   14.888564   19.338813 C.3        1 MOL1         0.0138
     123    H58     24.252857   15.872630   18.975374 H          1 MOL1         0.0794
     124    H59     23.404411   14.393216   18.510754 H          1 MOL1         0.0794
     125    O30     25.061277   14.113546   19.743251 O.3        1 MOL1        -0.5486
     126    H60     24.705092   13.261962   20.081648 H          1 MOL1         0.3769
     127    C1      19.701473   19.770037   25.304961 C.2        1 MOL1         0.6173
     128    O1      18.878286   19.611217   26.184823 O.co2      1 MOL1        -0.6755
     129    O2      20.591815   20.599747   25.370288 O.co2      1 MOL1        -0.6755
     130    C2      19.526817   18.988451   24.051463 C.2        1 MOL1        -0.1504
     131    H1      18.629016   18.380726   24.001326 H          1 MOL1         0.0814
     132    C3      20.383566   19.032505   23.006181 C.2        1 MOL1        -0.1394
     133    H2      21.296700   19.621827   23.059070 H          1 MOL1         0.0817
     134    C4      20.127136   18.353736   21.679292 C.3        1 MOL1        -0.1849
     135    H3      19.342190   17.593764   21.784190 H          1 MOL1         0.0736
     136    H4      21.029880   17.834572   21.336499 H          1 MOL1         0.0736
     137    C5      19.703840   19.406289   20.635758 C.3        1 MOL1        -0.1866
     138    H5      18.828525   19.948331   21.015894 H          1 MOL1         0.0738
     139    H6      20.506690   20.146264   20.515436 H          1 MOL1         0.0738
     140    C6      19.369297   18.784044   19.266336 C.3        1 MOL1        -0.2879
     141    H7      20.208540   18.185725   18.888409 H          1 MOL1         0.0750
     142    H8      18.487556   18.136000   19.337337 H          1 MOL1         0.0750
     143    H9      19.150414   19.567400   18.530022 H          1 MOL1         0.0750
@<TRIPOS>BOND
    1     1     2    1
    2     1     3    1
    3     1     4    1
    4     4     5    1
    5     4     6    1
    6     6     7    1
    7     4     8    1
    8     8     9    1
    9     8    10    1
   10    10    11    1
   11     8    12    1
   12    12    13    1
   13    12    14    1
   14    14    15    1
   15     1    16    1
   16    14    16    1
   17    14    17    1
   18    17    18    1
   19    17    19    1
   20    17    20    1
   21    20    21    1
   22    22    23    1
   23    22    24    1
   24    22    25    1
   25    25    26    1
   26    25    27    1
   27    27    28    1
   28    25    29    1
   29    29    30    1
   30    29    31    1
   31    31    32    1
   32     3    33    1
   33    29    33    1
   34    33    34    1
   35    33    35    1
   36    35    36    1
   37    22    37    1
   38    35    37    1
   39    35    38    1
   40    38    39    1
   41    38    40    1
   42    38    41    1
   43    41    42    1
   44    43    44    1
   45    43    45    1
   46    43    46    1
   47    46    47    1
   48    46    48    1
   49    48    49    1
   50    46    50    1
   51    50    51    1
   52    50    52    1
   53    52    53    1
   54    24    54    1
   55    50    54    1
   56    54    55    1
   57    54    56    1
   58    56    57    1
   59    43    58    1
   60    56    58    1
   61    56    59    1
   62    59    60    1
   63    59    61    1
   64    59    62    1
   65    62    63    1
   66    64    65    1
   67    64    66    1
   68    64    67    1
   69    67    68    1
   70    67    69    1
   71    69    70    1
   72    67    71    1
   73    71    72    1
   74    71    73    1
   75    73    74    1
   76    45    75    1
   77    71    75    1
   78    75    76    1
   79    75    77    1
   80    77    78    1
   81    64    79    1
   82    77    79    1
   83    77    80    1
   84    80    81    1
   85    80    82    1
   86    80    83    1
   87    83    84    1
   88    85    86    1
   89    85    87    1
   90    85    88    1
   91    88    89    1
   92    88    90    1
   93    90    91    1
   94    88    92    1
   95    92    93    1
   96    92    94    1
   97    94    95    1
   98    66    96    1
   99    92    96    1
  100    96    97    1
  101    96    98    1
  102    98    99    1
  103    85   100    1
  104    98   100    1
  105    98   101    1
  106   101   102    1
  107   101   103    1
  108   101   104    1
  109   104   105    1
  110   106   107    1
  111    12   108    1
  112   106   108    1
  113   106   109    1
  114   109   110    1
  115   109   111    1
  116   111   112    1
  117   109   113    1
  118   113   114    1
  119   113   115    1
  120   115   116    1
  121    87   117    1
  122   113   117    1
  123   117   118    1
  124   117   119    1
  125   119   120    1
  126   106   121    1
  127   119   121    1
  128   119   122    1
  129   122   123    1
  130   122   124    1
  131   122   125    1
  132   125   126    1
  133   127   128    1
  134   127   129    2
  135   127   130    1
  136   130   131    1
  137   130   132    2
  138   132   133    1
  139   132   134    1
  140   134   135    1
  141   134   136    1
  142   134   137    1
  143   137   138    1
  144   137   139    1
  145   137   140    1
  146   140   141    1
  147   140   142    1
  148   140   143    1
@<TRIPOS>SUBSTRUCTURE
       1 MOL1            1 RESIDUE      1      MOL     
       2 MOL1          143 RESIDUE      1      MOL     
@<SCITEGIC>MOL_PROPERTY
VM2 Rank
SciTegic.value.IntegerValue
3

@<SCITEGIC>MOL_PROPERTY
Conf_Id
SciTegic.value.IntegerValue
14209

@<SCITEGIC>MOL_PROPERTY
Probability
SciTegic.value.DoubleValue
1.24

@<SCITEGIC>MOL_PROPERTY
Sum Probability
SciTegic.value.DoubleValue
4.58

@<SCITEGIC>MOL_PROPERTY
Delta G
SciTegic.value.DoubleValue
0.302

@<SCITEGIC>MOL_PROPERTY
G
SciTegic.value.DoubleValue
487.913

@<SCITEGIC>MOL_PROPERTY
E
SciTegic.value.DoubleValue
305.431

@<SCITEGIC>MOL_PROPERTY
-TS
SciTegic.value.DoubleValue
182.482

@<SCITEGIC>MOL_PROPERTY
U+W
SciTegic.value.DoubleValue
179.343

@<SCITEGIC>MOL_PROPERTY
U
SciTegic.value.DoubleValue
253.137

@<SCITEGIC>MOL_PROPERTY
W
SciTegic.value.DoubleValue
-73.794

@<SCITEGIC>MOL_PROPERTY
W(PB)
SciTegic.value.DoubleValue
-79.887

@<SCITEGIC>MOL_PROPERTY
W(SA)
SciTegic.value.DoubleValue
6.092

@<SCITEGIC>MOL_PROPERTY
Valence
SciTegic.value.DoubleValue
145.687

@<SCITEGIC>MOL_PROPERTY
Coulomb
SciTegic.value.DoubleValue
129.934

@<SCITEGIC>MOL_PROPERTY
VdW
SciTegic.value.DoubleValue
-22.484

@<SCITEGIC>MOL_PROPERTY
VdW6
SciTegic.value.DoubleValue
-175.141

@<SCITEGIC>MOL_PROPERTY
VdW12
SciTegic.value.DoubleValue
152.657

@<SCITEGIC>MOL_PROPERTY
Bond
SciTegic.value.DoubleValue
4.598

@<SCITEGIC>MOL_PROPERTY
Angle
SciTegic.value.DoubleValue
12.181

@<SCITEGIC>MOL_PROPERTY
Pdih
SciTegic.value.DoubleValue
128.879

@<SCITEGIC>MOL_PROPERTY
Idih
SciTegic.value.DoubleValue
0.029

@<SCITEGIC>MOL_PROPERTY
Tether
SciTegic.value.DoubleValue
0.000

@<TRIPOS>MOLECULE
CD_guest-s19_vm2_single.mol2 : vm2 host+ligand conformer 4
         143         148           2
SMALL
USER_CHARGES
 
@<TRIPOS>ATOM
       1    C1      16.366100   15.216724   20.619287 C.3        1 MOL1         0.2972
       2    H1      15.322772   15.105211   20.297092 H          1 MOL1         0.0751
       3    O1      16.673059   16.588706   20.945329 O.3        1 MOL1        -0.3740
       4    C2      16.674125   14.304936   21.837572 C.3        1 MOL1         0.1003
       5    H2      16.521197   13.267355   21.512994 H          1 MOL1         0.0783
       6    O2      15.809467   14.576657   22.946864 O.3        1 MOL1        -0.5519
       7    H3      16.154686   14.013204   23.676104 H          1 MOL1         0.3769
       8    C3      18.151301   14.450913   22.272188 C.3        1 MOL1         0.1053
       9    H4      18.298769   15.473917   22.646042 H          1 MOL1         0.0783
      10    O3      18.441767   13.509352   23.312350 O.3        1 MOL1        -0.5519
      11    H5      19.330795   13.756209   23.670772 H          1 MOL1         0.3769
      12    C4      19.109382   14.232713   21.073204 C.3        1 MOL1         0.1018
      13    H6      19.164743   13.162549   20.833269 H          1 MOL1         0.0783
      14    C5      18.667534   15.011455   19.805303 C.3        1 MOL1         0.1043
      15    H7      18.868935   16.075855   19.970865 H          1 MOL1         0.0783
      16    O4      17.253114   14.811071   19.556235 O.3        1 MOL1        -0.3740
      17    C6      19.432936   14.578472   18.535621 C.3        1 MOL1         0.0138
      18    H8      20.508077   14.733363   18.693210 H          1 MOL1         0.0794
      19    H9      19.125516   15.223898   17.702015 H          1 MOL1         0.0794
      20    O5      19.173807   13.206699   18.222883 O.3        1 MOL1        -0.5486
      21    H10     18.195506   13.119125   18.178383 H          1 MOL1         0.3769
      22    C7      14.886968   20.275361   21.635084 C.3        1 MOL1         0.2972
      23    H11     14.196914   21.098090   21.861308 H          1 MOL1         0.0751
      24    O6      16.151546   20.762566   21.141601 O.3        1 MOL1        -0.3740
      25    C8      15.124142   19.410140   22.899398 C.3        1 MOL1         0.1003
      26    H12     14.151243   18.997678   23.196822 H          1 MOL1         0.0783
      27    O7      15.651797   20.180299   23.987154 O.3        1 MOL1        -0.5519
      28    H13     16.023760   19.513114   24.609493 H          1 MOL1         0.3769
      29    C9      16.060961   18.221492   22.590850 C.3        1 MOL1         0.1053
      30    H14     17.059022   18.617537   22.359534 H          1 MOL1         0.0783
      31    O8      16.114333   17.369161   23.740249 O.3        1 MOL1        -0.5519
      32    H15     16.227116   16.447850   23.405646 H          1 MOL1         0.3769
      33    C10     15.568697   17.415779   21.363835 C.3        1 MOL1         0.1018
      34    H16     14.699700   16.814667   21.664065 H          1 MOL1         0.0783
      35    C11     15.189840   18.336328   20.168839 C.3        1 MOL1         0.1043
      36    H17     16.114187   18.757764   19.751723 H          1 MOL1         0.0783
      37    O9      14.325955   19.409847   20.623459 O.3        1 MOL1        -0.3740
      38    C12     14.458818   17.594919   19.027597 C.3        1 MOL1         0.0138
      39    H18     15.140117   16.854448   18.587830 H          1 MOL1         0.0794
      40    H19     14.210721   18.318233   18.239286 H          1 MOL1         0.0794
      41    O10     13.272391   16.952743   19.503734 O.3        1 MOL1        -0.5486
      42    H20     12.720451   17.659302   19.907068 H          1 MOL1         0.3769
      43    C13     18.422004   24.167390   20.767357 C.3        1 MOL1         0.2972
      44    H21     18.867106   25.150344   20.566120 H          1 MOL1         0.0751
      45    O11     19.431845   23.179042   21.062445 O.3        1 MOL1        -0.3740
      46    C14     17.410147   24.241233   21.939585 C.3        1 MOL1         0.1003
      47    H22     16.593656   24.901992   21.621436 H          1 MOL1         0.0783
      48    O12     18.023928   24.800107   23.111509 O.3        1 MOL1        -0.5519
      49    H23     18.679577   24.134040   23.436738 H          1 MOL1         0.3769
      50    C15     16.803335   22.839559   22.217908 C.3        1 MOL1         0.1053
      51    H24     17.601580   22.196597   22.615369 H          1 MOL1         0.0783
      52    O13     15.744902   22.946665   23.176806 O.3        1 MOL1        -0.5519
      53    H25     15.652261   22.047428   23.577333 H          1 MOL1         0.3769
      54    C16     16.253807   22.183619   20.917512 C.3        1 MOL1         0.1018
      55    H26     15.276539   22.621576   20.674884 H          1 MOL1         0.0783
      56    C17     17.189750   22.356785   19.688485 C.3        1 MOL1         0.1043
      57    H27     18.033317   21.664173   19.790190 H          1 MOL1         0.0783
      58    O14     17.687863   23.714981   19.612012 O.3        1 MOL1        -0.3740
      59    C18     16.486911   22.033189   18.351716 C.3        1 MOL1         0.0138
      60    H28     16.112177   21.001300   18.385361 H          1 MOL1         0.0794
      61    H29     17.226773   22.089227   17.542179 H          1 MOL1         0.0794
      62    O15     15.410275   22.942216   18.103160 O.3        1 MOL1        -0.5486
      63    H30     15.795048   23.844251   18.174838 H          1 MOL1         0.3769
      64    C19     23.398180   22.673366   22.062381 C.3        1 MOL1         0.2972
      65    H31     24.446594   22.769965   22.370662 H          1 MOL1         0.0751
      66    O16     23.139016   21.395782   21.439673 O.3        1 MOL1        -0.3740
      67    C20     22.458052   22.826024   23.284344 C.3        1 MOL1         0.1003
      68    H32     22.595141   23.840803   23.679565 H          1 MOL1         0.0783
      69    O17     22.823399   21.880039   24.303101 O.3        1 MOL1        -0.5519
      70    H33     21.992613   21.523335   24.713978 H          1 MOL1         0.3769
      71    C21     20.975786   22.690537   22.843115 C.3        1 MOL1         0.1053
      72    H34     20.806961   21.668343   22.487310 H          1 MOL1         0.0783
      73    O18     20.105296   22.969287   23.947533 O.3        1 MOL1        -0.5519
      74    H35     20.164895   22.187868   24.557005 H          1 MOL1         0.3769
      75    C22     20.652268   23.650426   21.666126 C.3        1 MOL1         0.1018
      76    H36     20.547627   24.669094   22.062502 H          1 MOL1         0.0783
      77    C23     21.733158   23.624302   20.547770 C.3        1 MOL1         0.1043
      78    H37     21.636501   22.677472   20.000173 H          1 MOL1         0.0783
      79    O19     23.057935   23.715452   21.124788 O.3        1 MOL1        -0.3740
      80    C24     21.587158   24.770367   19.521877 C.3        1 MOL1         0.0138
      81    H38     20.639043   24.648775   18.981514 H          1 MOL1         0.0794
      82    H39     22.395857   24.687346   18.783389 H          1 MOL1         0.0794
      83    O20     21.629549   26.048627   20.162882 O.3        1 MOL1        -0.5486
      84    H40     22.483602   26.084486   20.648569 H          1 MOL1         0.3769
      85    C25     24.970328   17.670857   21.042788 C.3        1 MOL1         0.2972
      86    H41     25.651145   16.843034   20.806076 H          1 MOL1         0.0751
      87    O21     23.669433   17.193942   21.434624 O.3        1 MOL1        -0.3740
      88    C26     25.539453   18.544524   22.188693 C.3        1 MOL1         0.1003
      89    H42     26.505231   18.941092   21.849357 H          1 MOL1         0.0783
      90    O22     25.737834   17.778658   23.385076 O.3        1 MOL1        -0.5519
      91    H43     25.982215   18.444794   24.066581 H          1 MOL1         0.3769
      92    C27     24.609641   19.745062   22.487483 C.3        1 MOL1         0.1053
      93    H44     23.670318   19.351709   22.900469 H          1 MOL1         0.0783
      94    O23     25.249129   20.586334   23.454620 O.3        1 MOL1        -0.5519
      95    H45     24.520006   21.096822   23.887110 H          1 MOL1         0.3769
      96    C28     24.272705   20.538924   21.192066 C.3        1 MOL1         0.1018
      97    H46     25.147433   21.121696   20.874649 H          1 MOL1         0.0783
      98    C29     23.844975   19.596704   20.033739 C.3        1 MOL1         0.1043
      99    H47     22.853871   19.185671   20.268121 H          1 MOL1         0.0783
     100    O24     24.803253   18.519219   19.887866 O.3        1 MOL1        -0.3740
     101    C30     23.743178   20.319589   18.672302 C.3        1 MOL1         0.0138
     102    H48     23.006870   21.130236   18.750125 H          1 MOL1         0.0794
     103    H49     23.370573   19.608090   17.923413 H          1 MOL1         0.0794
     104    O25     25.013164   20.842247   18.270993 O.3        1 MOL1        -0.5486
     105    H50     25.641066   20.086693   18.309373 H          1 MOL1         0.3769
     106    C31     21.392897   13.805058   21.843065 C.3        1 MOL1         0.2972
     107    H51     20.969418   12.801116   21.973452 H          1 MOL1         0.0751
     108    O26     20.388521   14.765373   21.459892 O.3        1 MOL1        -0.3740
     109    C32     22.062544   14.275456   23.156879 C.3        1 MOL1         0.1003
     110    H52     22.885495   13.581110   23.370918 H          1 MOL1         0.0783
     111    O27     21.137026   14.257254   24.252162 O.3        1 MOL1        -0.5519
     112    H53     21.593578   14.753249   24.968616 H          1 MOL1         0.3769
     113    C33     22.666792   15.688710   22.992258 C.3        1 MOL1         0.1053
     114    H54     21.839938   16.403686   22.888572 H          1 MOL1         0.0783
     115    O28     23.443835   16.009300   24.152153 O.3        1 MOL1        -0.5519
     116    H55     24.043060   16.750801   23.892648 H          1 MOL1         0.3769
     117    C34     23.563044   15.789501   21.730833 C.3        1 MOL1         0.1018
     118    H56     24.540124   15.345452   21.964328 H          1 MOL1         0.0783
     119    C35     22.950214   15.101866   20.476171 C.3        1 MOL1         0.1043
     120    H57     22.144227   15.743213   20.095596 H          1 MOL1         0.0783
     121    O29     22.413387   13.800552   20.823342 O.3        1 MOL1        -0.3740
     122    C36     23.961480   14.898799   19.325885 C.3        1 MOL1         0.0138
     123    H58     24.289442   15.879815   18.957825 H          1 MOL1         0.0794
     124    H59     23.452242   14.393247   18.494424 H          1 MOL1         0.0794
     125    O30     25.088562   14.130745   19.757388 O.3        1 MOL1        -0.5486
     126    H60     24.728562   13.280562   20.095348 H          1 MOL1         0.3769
     127    C1      19.716120   19.719572   25.258812 C.2        1 MOL1         0.6173
     128    O1      18.904817   19.535095   26.144711 O.co2      1 MOL1        -0.6755
     129    O2      20.594657   20.561467   25.327573 O.co2      1 MOL1        -0.6755
     130    C2      19.540499   18.953418   23.995875 C.2        1 MOL1        -0.1504
     131    H1      18.652821   18.330871   23.946982 H          1 MOL1         0.0814
     132    C3      20.384342   19.027407   22.941824 C.2        1 MOL1        -0.1394
     133    H2      21.288516   19.630251   22.993840 H          1 MOL1         0.0817
     134    C4      20.125253   18.362968   21.608216 C.3        1 MOL1        -0.1849
     135    H3      19.344188   17.598595   21.708831 H          1 MOL1         0.0736
     136    H4      21.028974   17.851901   21.256123 H          1 MOL1         0.0736
     137    C5      19.692306   19.424764   20.578195 C.3        1 MOL1        -0.1866
     138    H5      18.810937   19.952229   20.964733 H          1 MOL1         0.0738
     139    H6      20.487527   20.174884   20.469376 H          1 MOL1         0.0738
     140    C6      19.366064   18.817817   19.199842 C.3        1 MOL1        -0.2879
     141    H7      20.213377   18.235635   18.815520 H          1 MOL1         0.0750
     142    H8      18.490096   18.160949   19.261065 H          1 MOL1         0.0750
     143    H9      19.139925   19.610053   18.475115 H          1 MOL1         0.0750
@<TRIPOS>BOND
    1     1     2    1
    2     1     3    1
    3     1     4    1
    4     4     5    1
    5     4     6    1
    6     6     7    1
    7     4     8    1
    8     8     9    1
    9     8    10    1
   10    10    11    1
   11     8    12    1
   12    12    13    1
   13    12    14    1
   14    14    15    1
   15     1    16    1
   16    14    16    1
   17    14    17    1
   18    17    18    1
   19    17    19    1
   20    17    20    1
   21    20    21    1
   22    22    23    1
   23    22    24    1
   24    22    25    1
   25    25    26    1
   26    25    27    1
   27    27    28    1
   28    25    29    1
   29    29    30    1
   30    29    31    1
   31    31    32    1
   32     3    33    1
   33    29    33    1
   34    33    34    1
   35    33    35    1
   36    35    36    1
   37    22    37    1
   38    35    37    1
   39    35    38    1
   40    38    39    1
   41    38    40    1
   42    38    41    1
   43    41    42    1
   44    43    44    1
   45    43    45    1
   46    43    46    1
   47    46    47    1
   48    46    48    1
   49    48    49    1
   50    46    50    1
   51    50    51    1
   52    50    52    1
   53    52    53    1
   54    24    54    1
   55    50    54    1
   56    54    55    1
   57    54    56    1
   58    56    57    1
   59    43    58    1
   60    56    58    1
   61    56    59    1
   62    59    60    1
   63    59    61    1
   64    59    62    1
   65    62    63    1
   66    64    65    1
   67    64    66    1
   68    64    67    1
   69    67    68    1
   70    67    69    1
   71    69    70    1
   72    67    71    1
   73    71    72    1
   74    71    73    1
   75    73    74    1
   76    45    75    1
   77    71    75    1
   78    75    76    1
   79    75    77    1
   80    77    78    1
   81    64    79    1
   82    77    79    1
   83    77    80    1
   84    80    81    1
   85    80    82    1
   86    80    83    1
   87    83    84    1
   88    85    86    1
   89    85    87    1
   90    85    88    1
   91    88    89    1
   92    88    90    1
   93    90    91    1
   94    88    92    1
   95    92    93    1
   96    92    94    1
   97    94    95    1
   98    66    96    1
   99    92    96    1
  100    96    97    1
  101    96    98    1
  102    98    99    1
  103    85   100    1
  104    98   100    1
  105    98   101    1
  106   101   102    1
  107   101   103    1
  108   101   104    1
  109   104   105    1
  110   106   107    1
  111    12   108    1
  112   106   108    1
  113   106   109    1
  114   109   110    1
  115   109   111    1
  116   111   112    1
  117   109   113    1
  118   113   114    1
  119   113   115    1
  120   115   116    1
  121    87   117    1
  122   113   117    1
  123   117   118    1
  124   117   119    1
  125   119   120    1
  126   106   121    1
  127   119   121    1
  128   119   122    1
  129   122   123    1
  130   122   124    1
  131   122   125    1
  132   125   126    1
  133   127   128    1
  134   127   129    2
  135   127   130    1
  136   130   131    1
  137   130   132    2
  138   132   133    1
  139   132   134    1
  140   134   135    1
  141   134   136    1
  142   134   137    1
  143   137   138    1
  144   137   139    1
  145   137   140    1
  146   140   141    1
  147   140   142    1
  148   140   143    1
@<TRIPOS>SUBSTRUCTURE
       1 MOL1            1 RESIDUE      1      MOL     
       2 MOL1          143 RESIDUE      1      MOL     
@<SCITEGIC>MOL_PROPERTY
VM2 Rank
SciTegic.value.IntegerValue
4

@<SCITEGIC>MOL_PROPERTY
Conf_Id
SciTegic.value.IntegerValue
11809

@<SCITEGIC>MOL_PROPERTY
Probability
SciTegic.value.DoubleValue
1.10

@<SCITEGIC>MOL_PROPERTY
Sum Probability
SciTegic.value.DoubleValue
5.68

@<SCITEGIC>MOL_PROPERTY
Delta G
SciTegic.value.DoubleValue
0.370

@<SCITEGIC>MOL_PROPERTY
G
SciTegic.value.DoubleValue
487.982

@<SCITEGIC>MOL_PROPERTY
E
SciTegic.value.DoubleValue
305.377

@<SCITEGIC>MOL_PROPERTY
-TS
SciTegic.value.DoubleValue
182.605

@<SCITEGIC>MOL_PROPERTY
U+W
SciTegic.value.DoubleValue
179.288

@<SCITEGIC>MOL_PROPERTY
U
SciTegic.value.DoubleValue
252.272

@<SCITEGIC>MOL_PROPERTY
W
SciTegic.value.DoubleValue
-72.983

@<SCITEGIC>MOL_PROPERTY
W(PB)
SciTegic.value.DoubleValue
-79.097

@<SCITEGIC>MOL_PROPERTY
W(SA)
SciTegic.value.DoubleValue
6.114

@<SCITEGIC>MOL_PROPERTY
Valence
SciTegic.value.DoubleValue
145.535

@<SCITEGIC>MOL_PROPERTY
Coulomb
SciTegic.value.DoubleValue
128.681

@<SCITEGIC>MOL_PROPERTY
VdW
SciTegic.value.DoubleValue
-21.944

@<SCITEGIC>MOL_PROPERTY
VdW6
SciTegic.value.DoubleValue
-175.294

@<SCITEGIC>MOL_PROPERTY
VdW12
SciTegic.value.DoubleValue
153.351

@<SCITEGIC>MOL_PROPERTY
Bond
SciTegic.value.DoubleValue
4.634

@<SCITEGIC>MOL_PROPERTY
Angle
SciTegic.value.DoubleValue
12.307

@<SCITEGIC>MOL_PROPERTY
Pdih
SciTegic.value.DoubleValue
128.565

@<SCITEGIC>MOL_PROPERTY
Idih
SciTegic.value.DoubleValue
0.028

@<SCITEGIC>MOL_PROPERTY
Tether
SciTegic.value.DoubleValue
0.000

@<TRIPOS>MOLECULE
CD_guest-s19_vm2_single.mol2 : vm2 host+ligand conformer 5
         143         148           2
SMALL
USER_CHARGES
 
@<TRIPOS>ATOM
       1    C1      16.340287   15.237537   21.946760 C.3        1 MOL1         0.2972
       2    H1      15.260406   15.105479   22.090796 H          1 MOL1         0.0751
       3    O1      16.669281   16.604401   21.623910 O.3        1 MOL1        -0.3740
       4    C2      17.090393   14.818087   23.234824 C.3        1 MOL1         0.1003
       5    H2      16.858790   13.760402   23.416016 H          1 MOL1         0.0783
       6    O2      16.658248   15.592059   24.362134 O.3        1 MOL1        -0.5519
       7    H3      17.313669   15.391259   25.067516 H          1 MOL1         0.3769
       8    C3      18.620307   14.941404   23.057438 C.3        1 MOL1         0.1053
       9    H4      18.870837   16.007648   22.994342 H          1 MOL1         0.0783
      10    O3      19.278553   14.352631   24.185447 O.3        1 MOL1        -0.5519
      11    H5      20.217216   14.199517   23.916035 H          1 MOL1         0.3769
      12    C4      19.102828   14.242651   21.761481 C.3        1 MOL1         0.1018
      13    H6      19.121500   13.159056   21.939471 H          1 MOL1         0.0783
      14    C5      18.213171   14.562984   20.527636 C.3        1 MOL1         0.1043
      15    H7      18.408157   15.601113   20.227059 H          1 MOL1         0.0783
      16    O4      16.812867   14.403912   20.868447 O.3        1 MOL1        -0.3740
      17    C6      18.500615   13.660169   19.307163 C.3        1 MOL1         0.0138
      18    H8      19.523900   13.844872   18.955262 H          1 MOL1         0.0794
      19    H9      17.821080   13.942459   18.491908 H          1 MOL1         0.0794
      20    O5      18.333084   12.278057   19.636587 O.3        1 MOL1        -0.5486
      21    H10     17.413005   12.184700   19.970105 H          1 MOL1         0.3769
      22    C7      14.789102   20.227710   20.763865 C.3        1 MOL1         0.2972
      23    H11     14.071270   20.994881   20.447852 H          1 MOL1         0.0751
      24    O6      16.075617   20.792983   21.080598 O.3        1 MOL1        -0.3740
      25    C8      14.260014   19.483362   22.017119 C.3        1 MOL1         0.1003
      26    H12     13.301099   19.023752   21.744526 H          1 MOL1         0.0783
      27    O7      14.054611   20.384557   23.113895 O.3        1 MOL1        -0.5519
      28    H13     13.890855   19.799255   23.887548 H          1 MOL1         0.3769
      29    C9      15.226745   18.351647   22.438646 C.3        1 MOL1         0.1053
      30    H14     16.161034   18.812171   22.787916 H          1 MOL1         0.0783
      31    O8      14.635042   17.584794   23.494922 O.3        1 MOL1        -0.5519
      32    H15     15.335663   16.965188   23.819259 H          1 MOL1         0.3769
      33    C10     15.557553   17.432753   21.235456 C.3        1 MOL1         0.1018
      34    H16     14.672487   16.834075   20.981348 H          1 MOL1         0.0783
      35    C11     15.977419   18.236435   19.977535 C.3        1 MOL1         0.1043
      36    H17     16.960169   18.693498   20.151673 H          1 MOL1         0.0783
      37    O9      14.976078   19.251931   19.716802 O.3        1 MOL1        -0.3740
      38    C12     16.062500   17.343175   18.722177 C.3        1 MOL1         0.0138
      39    H18     15.078051   16.897297   18.527274 H          1 MOL1         0.0794
      40    H19     16.768193   16.523955   18.906361 H          1 MOL1         0.0794
      41    O10     16.493420   18.113023   17.598575 O.3        1 MOL1        -0.5486
      42    H20     15.882698   18.880436   17.547163 H          1 MOL1         0.3769
      43    C13     18.445515   24.149809   20.872371 C.3        1 MOL1         0.2972
      44    H21     18.907879   25.132402   20.712643 H          1 MOL1         0.0751
      45    O11     19.417017   23.163276   21.275391 O.3        1 MOL1        -0.3740
      46    C14     17.319989   24.225151   21.936406 C.3        1 MOL1         0.1003
      47    H22     16.543145   24.893138   21.541923 H          1 MOL1         0.0783
      48    O12     17.792064   24.745356   23.184638 O.3        1 MOL1        -0.5519
      49    H23     17.029124   24.650361   23.798815 H          1 MOL1         0.3769
      50    C15     16.683145   22.832839   22.152922 C.3        1 MOL1         0.1053
      51    H24     17.434659   22.176637   22.614869 H          1 MOL1         0.0783
      52    O13     15.546873   22.956506   23.017092 O.3        1 MOL1        -0.5519
      53    H25     15.140771   22.056185   23.081952 H          1 MOL1         0.3769
      54    C16     16.245053   22.196532   20.810402 C.3        1 MOL1         0.1018
      55    H26     15.310872   22.673678   20.486343 H          1 MOL1         0.0783
      56    C17     17.311186   22.333511   19.686338 C.3        1 MOL1         0.1043
      57    H27     18.128571   21.632574   19.891717 H          1 MOL1         0.0783
      58    O14     17.832634   23.686259   19.650413 O.3        1 MOL1        -0.3740
      59    C18     16.760191   22.001901   18.282611 C.3        1 MOL1         0.0138
      60    H28     16.422959   20.957869   18.269428 H          1 MOL1         0.0794
      61    H29     17.576343   22.090870   17.553260 H          1 MOL1         0.0794
      62    O15     15.682285   22.874885   17.931737 O.3        1 MOL1        -0.5486
      63    H30     16.033923   23.789273   18.013133 H          1 MOL1         0.3769
      64    C19     23.331864   22.595037   22.394333 C.3        1 MOL1         0.2972
      65    H31     24.367342   22.678222   22.747756 H          1 MOL1         0.0751
      66    O16     23.091348   21.321099   21.759395 O.3        1 MOL1        -0.3740
      67    C20     22.355621   22.766848   23.585021 C.3        1 MOL1         0.1003
      68    H32     22.541778   23.758820   24.016193 H          1 MOL1         0.0783
      69    O17     22.608703   21.769189   24.588022 O.3        1 MOL1        -0.5519
      70    H33     21.730792   21.519353   24.988388 H          1 MOL1         0.3769
      71    C21     20.880976   22.732896   23.115699 C.3        1 MOL1         0.1053
      72    H34     20.633279   21.703352   22.829921 H          1 MOL1         0.0783
      73    O18     20.040698   23.164129   24.189908 O.3        1 MOL1        -0.5519
      74    H35     19.193316   23.467893   23.788244 H          1 MOL1         0.3769
      75    C22     20.627148   23.646718   21.888331 C.3        1 MOL1         0.1018
      76    H36     20.523771   24.683122   22.237298 H          1 MOL1         0.0783
      77    C23     21.742764   23.557308   20.810088 C.3        1 MOL1         0.1043
      78    H37     21.636549   22.597709   20.287493 H          1 MOL1         0.0783
      79    O19     23.048001   23.632331   21.432965 O.3        1 MOL1        -0.3740
      80    C24     21.662910   24.674679   19.746071 C.3        1 MOL1         0.0138
      81    H38     20.728905   24.563865   19.179407 H          1 MOL1         0.0794
      82    H39     22.491248   24.545738   19.036609 H          1 MOL1         0.0794
      83    O20     21.723611   25.970271   20.349505 O.3        1 MOL1        -0.5486
      84    H40     22.559472   25.993886   20.866656 H          1 MOL1         0.3769
      85    C25     25.093795   17.732902   21.060758 C.3        1 MOL1         0.2972
      86    H41     25.825484   16.959241   20.796622 H          1 MOL1         0.0751
      87    O21     23.787664   17.178958   21.308524 O.3        1 MOL1        -0.3740
      88    C26     25.545424   18.492576   22.333349 C.3        1 MOL1         0.1003
      89    H42     26.507332   18.970867   22.107393 H          1 MOL1         0.0783
      90    O22     25.712274   17.601915   23.444983 O.3        1 MOL1        -0.5519
      91    H43     25.825145   18.196419   24.220860 H          1 MOL1         0.3769
      92    C27     24.533126   19.604682   22.696165 C.3        1 MOL1         0.1053
      93    H44     23.588421   19.122958   22.981788 H          1 MOL1         0.0783
      94    O23     25.042398   20.362156   23.800487 O.3        1 MOL1        -0.5519
      95    H45     24.265774   20.847256   24.177837 H          1 MOL1         0.3769
      96    C28     24.258694   20.525525   21.475055 C.3        1 MOL1         0.1018
      97    H46     25.136161   21.158284   21.285994 H          1 MOL1         0.0783
      98    C29     23.951603   19.715411   20.186809 C.3        1 MOL1         0.1043
      99    H47     22.961810   19.251078   20.282322 H          1 MOL1         0.0783
     100    O24     24.974886   18.704208   19.999482 O.3        1 MOL1        -0.3740
     101    C30     23.948496   20.608656   18.929020 C.3        1 MOL1         0.0138
     102    H48     24.936484   21.073512   18.811937 H          1 MOL1         0.0794
     103    H49     23.213663   21.413461   19.058758 H          1 MOL1         0.0794
     104    O25     23.621815   19.831008   17.775604 O.3        1 MOL1        -0.5486
     105    H50     24.245467   19.071745   17.776884 H          1 MOL1         0.3769
     106    C31     21.414507   13.810914   21.082019 C.3        1 MOL1         0.2972
     107    H51     20.982271   12.816318   20.912651 H          1 MOL1         0.0751
     108    O26     20.415901   14.765778   21.492327 O.3        1 MOL1        -0.3740
     109    C32     22.509963   13.755765   22.176479 C.3        1 MOL1         0.1003
     110    H52     23.292592   13.071158   21.824475 H          1 MOL1         0.0783
     111    O27     21.984362   13.275456   23.421654 O.3        1 MOL1        -0.5519
     112    H53     22.716742   13.403998   24.065766 H          1 MOL1         0.3769
     113    C33     23.150337   15.148337   22.384961 C.3        1 MOL1         0.1053
     114    H54     22.393369   15.809462   22.830421 H          1 MOL1         0.0783
     115    O28     24.272142   15.027972   23.268121 O.3        1 MOL1        -0.5519
     116    H55     24.673388   15.929879   23.341539 H          1 MOL1         0.3769
     117    C34     23.606219   15.776784   21.044088 C.3        1 MOL1         0.1018
     118    H56     24.535337   15.290473   20.719156 H          1 MOL1         0.0783
     119    C35     22.535875   15.652737   19.924213 C.3        1 MOL1         0.1043
     120    H57     21.710917   16.341022   20.145547 H          1 MOL1         0.0783
     121    O29     22.032081   14.295764   19.870457 O.3        1 MOL1        -0.3740
     122    C36     23.077842   16.012851   18.523937 C.3        1 MOL1         0.0138
     123    H58     23.411098   17.058428   18.528651 H          1 MOL1         0.0794
     124    H59     22.258206   15.934093   17.797345 H          1 MOL1         0.0794
     125    O30     24.157267   15.150854   18.151431 O.3        1 MOL1        -0.5486
     126    H60     23.812295   14.233534   18.227978 H          1 MOL1         0.3769
     127    C1      19.382574   19.821354   25.281840 C.2        1 MOL1         0.6173
     128    O1      18.352522   19.846972   25.927401 O.co2      1 MOL1        -0.6755
     129    O2      20.435807   20.280486   25.686019 O.co2      1 MOL1        -0.6755
     130    C2      19.330376   19.187826   23.935693 C.2        1 MOL1        -0.1504
     131    H1      18.359638   18.814305   23.620605 H          1 MOL1         0.0814
     132    C3      20.403630   19.073422   23.122389 C.2        1 MOL1        -0.1394
     133    H2      21.377071   19.447577   23.434087 H          1 MOL1         0.0817
     134    C4      20.354972   18.465464   21.740671 C.3        1 MOL1        -0.1849
     135    H3      19.688490   17.595652   21.726990 H          1 MOL1         0.0736
     136    H4      21.352467   18.103821   21.474806 H          1 MOL1         0.0736
     137    C5      19.879289   19.491489   20.696828 C.3        1 MOL1        -0.1866
     138    H5      18.874993   19.837344   20.972445 H          1 MOL1         0.0738
     139    H6      20.537018   20.370729   20.714642 H          1 MOL1         0.0738
     140    C6      19.855255   18.892786   19.276419 C.3        1 MOL1        -0.2879
     141    H7      20.863120   18.595027   18.959707 H          1 MOL1         0.0750
     142    H8      19.205735   18.009199   19.232081 H          1 MOL1         0.0750
     143    H9      19.476972   19.627064   18.553927 H          1 MOL1         0.0750
@<TRIPOS>BOND
    1     1     2    1
    2     1     3    1
    3     1     4    1
    4     4     5    1
    5     4     6    1
    6     6     7    1
    7     4     8    1
    8     8     9    1
    9     8    10    1
   10    10    11    1
   11     8    12    1
   12    12    13    1
   13    12    14    1
   14    14    15    1
   15     1    16    1
   16    14    16    1
   17    14    17    1
   18    17    18    1
   19    17    19    1
   20    17    20    1
   21    20    21    1
   22    22    23    1
   23    22    24    1
   24    22    25    1
   25    25    26    1
   26    25    27    1
   27    27    28    1
   28    25    29    1
   29    29    30    1
   30    29    31    1
   31    31    32    1
   32     3    33    1
   33    29    33    1
   34    33    34    1
   35    33    35    1
   36    35    36    1
   37    22    37    1
   38    35    37    1
   39    35    38    1
   40    38    39    1
   41    38    40    1
   42    38    41    1
   43    41    42    1
   44    43    44    1
   45    43    45    1
   46    43    46    1
   47    46    47    1
   48    46    48    1
   49    48    49    1
   50    46    50    1
   51    50    51    1
   52    50    52    1
   53    52    53    1
   54    24    54    1
   55    50    54    1
   56    54    55    1
   57    54    56    1
   58    56    57    1
   59    43    58    1
   60    56    58    1
   61    56    59    1
   62    59    60    1
   63    59    61    1
   64    59    62    1
   65    62    63    1
   66    64    65    1
   67    64    66    1
   68    64    67    1
   69    67    68    1
   70    67    69    1
   71    69    70    1
   72    67    71    1
   73    71    72    1
   74    71    73    1
   75    73    74    1
   76    45    75    1
   77    71    75    1
   78    75    76    1
   79    75    77    1
   80    77    78    1
   81    64    79    1
   82    77    79    1
   83    77    80    1
   84    80    81    1
   85    80    82    1
   86    80    83    1
   87    83    84    1
   88    85    86    1
   89    85    87    1
   90    85    88    1
   91    88    89    1
   92    88    90    1
   93    90    91    1
   94    88    92    1
   95    92    93    1
   96    92    94    1
   97    94    95    1
   98    66    96    1
   99    92    96    1
  100    96    97    1
  101    96    98    1
  102    98    99    1
  103    85   100    1
  104    98   100    1
  105    98   101    1
  106   101   102    1
  107   101   103    1
  108   101   104    1
  109   104   105    1
  110   106   107    1
  111    12   108    1
  112   106   108    1
  113   106   109    1
  114   109   110    1
  115   109   111    1
  116   111   112    1
  117   109   113    1
  118   113   114    1
  119   113   115    1
  120   115   116    1
  121    87   117    1
  122   113   117    1
  123   117   118    1
  124   117   119    1
  125   119   120    1
  126   106   121    1
  127   119   121    1
  128   119   122    1
  129   122   123    1
  130   122   124    1
  131   122   125    1
  132   125   126    1
  133   127   128    1
  134   127   129    2
  135   127   130    1
  136   130   131    1
  137   130   132    2
  138   132   133    1
  139   132   134    1
  140   134   135    1
  141   134   136    1
  142   134   137    1
  143   137   138    1
  144   137   139    1
  145   137   140    1
  146   140   141    1
  147   140   142    1
  148   140   143    1
@<TRIPOS>SUBSTRUCTURE
       1 MOL1            1 RESIDUE      1      MOL     
       2 MOL1          143 RESIDUE      1      MOL     
@<SCITEGIC>MOL_PROPERTY
VM2 Rank
SciTegic.value.IntegerValue
5

@<SCITEGIC>MOL_PROPERTY
Conf_Id
SciTegic.value.IntegerValue
22053

@<SCITEGIC>MOL_PROPERTY
Probability
SciTegic.value.DoubleValue
1.06

@<SCITEGIC>MOL_PROPERTY
Sum Probability
SciTegic.value.DoubleValue
6.74

@<SCITEGIC>MOL_PROPERTY
Delta G
SciTegic.value.DoubleValue
0.392

@<SCITEGIC>MOL_PROPERTY
G
SciTegic.value.DoubleValue
488.004

@<SCITEGIC>MOL_PROPERTY
E
SciTegic.value.DoubleValue
308.377

@<SCITEGIC>MOL_PROPERTY
-TS
SciTegic.value.DoubleValue
179.627

@<SCITEGIC>MOL_PROPERTY
U+W
SciTegic.value.DoubleValue
182.288

@<SCITEGIC>MOL_PROPERTY
U
SciTegic.value.DoubleValue
264.739

@<SCITEGIC>MOL_PROPERTY
W
SciTegic.value.DoubleValue
-82.451

@<SCITEGIC>MOL_PROPERTY
W(PB)
SciTegic.value.DoubleValue
-88.494

@<SCITEGIC>MOL_PROPERTY
W(SA)
SciTegic.value.DoubleValue
6.044

@<SCITEGIC>MOL_PROPERTY
Valence
SciTegic.value.DoubleValue
145.827

@<SCITEGIC>MOL_PROPERTY
Coulomb
SciTegic.value.DoubleValue
144.828

@<SCITEGIC>MOL_PROPERTY
VdW
SciTegic.value.DoubleValue
-25.916

@<SCITEGIC>MOL_PROPERTY
VdW6
SciTegic.value.DoubleValue
-170.696

@<SCITEGIC>MOL_PROPERTY
VdW12
SciTegic.value.DoubleValue
144.780

@<SCITEGIC>MOL_PROPERTY
Bond
SciTegic.value.DoubleValue
4.201

@<SCITEGIC>MOL_PROPERTY
Angle
SciTegic.value.DoubleValue
11.022

@<SCITEGIC>MOL_PROPERTY
Pdih
SciTegic.value.DoubleValue
130.603

@<SCITEGIC>MOL_PROPERTY
Idih
SciTegic.value.DoubleValue
0.001

@<SCITEGIC>MOL_PROPERTY
Tether
SciTegic.value.DoubleValue
0.000

@<TRIPOS>MOLECULE
CD_guest-s19_vm2_single.mol2 : vm2 host+ligand conformer 6
         143         148           2
SMALL
USER_CHARGES
 
@<TRIPOS>ATOM
       1    C1      16.372426   15.216945   21.905307 C.3        1 MOL1         0.2972
       2    H1      15.291028   15.069864   22.020102 H          1 MOL1         0.0751
       3    O1      16.693098   16.593891   21.620541 O.3        1 MOL1        -0.3740
       4    C2      17.094796   14.778862   23.203347 C.3        1 MOL1         0.1003
       5    H2      16.864285   13.717124   23.360619 H          1 MOL1         0.0783
       6    O2      16.632502   15.530776   24.333678 O.3        1 MOL1        -0.5519
       7    H3      17.270678   15.318080   25.051299 H          1 MOL1         0.3769
       8    C3      18.627996   14.911970   23.065321 C.3        1 MOL1         0.1053
       9    H4      18.875905   15.980109   23.024139 H          1 MOL1         0.0783
      10    O3      19.261053   14.307587   24.199553 O.3        1 MOL1        -0.5519
      11    H5      20.210395   14.176215   23.956586 H          1 MOL1         0.3769
      12    C4      19.142108   14.234848   21.770526 C.3        1 MOL1         0.1018
      13    H6      19.144037   13.147731   21.926212 H          1 MOL1         0.0783
      14    C5      18.287979   14.589541   20.521619 C.3        1 MOL1         0.1043
      15    H7      18.486100   15.637008   20.257261 H          1 MOL1         0.0783
      16    O4      16.879970   14.413258   20.819925 O.3        1 MOL1        -0.3740
      17    C6      18.613610   13.724120   19.284015 C.3        1 MOL1         0.0138
      18    H8      19.645726   13.922497   18.968134 H          1 MOL1         0.0794
      19    H9      17.957053   14.028592   18.457983 H          1 MOL1         0.0794
      20    O5      18.442243   12.332305   19.567441 O.3        1 MOL1        -0.5486
      21    H10     17.513693   12.226480   19.872393 H          1 MOL1         0.3769
      22    C7      14.810294   20.210043   20.742950 C.3        1 MOL1         0.2972
      23    H11     14.093043   20.976513   20.423936 H          1 MOL1         0.0751
      24    O6      16.096472   20.775623   21.060063 O.3        1 MOL1        -0.3740
      25    C8      14.279655   19.469747   21.997813 C.3        1 MOL1         0.1003
      26    H12     13.321262   19.008961   21.725373 H          1 MOL1         0.0783
      27    O7      14.072488   20.374662   23.091234 O.3        1 MOL1        -0.5519
      28    H13     13.908179   19.792039   23.866777 H          1 MOL1         0.3769
      29    C9      15.246215   18.339757   22.424304 C.3        1 MOL1         0.1053
      30    H14     16.179249   18.801390   22.775589 H          1 MOL1         0.0783
      31    O8      14.651767   17.573605   23.479532 O.3        1 MOL1        -0.5519
      32    H15     15.345328   16.940960   23.793771 H          1 MOL1         0.3769
      33    C10     15.581107   17.418286   21.224595 C.3        1 MOL1         0.1018
      34    H16     14.696879   16.817888   20.971750 H          1 MOL1         0.0783
      35    C11     16.001447   18.217827   19.964221 C.3        1 MOL1         0.1043
      36    H17     16.983266   18.677119   20.137613 H          1 MOL1         0.0783
      37    O9      14.998585   19.230866   19.699290 O.3        1 MOL1        -0.3740
      38    C12     16.089655   17.320255   18.712183 C.3        1 MOL1         0.0138
      39    H18     15.109475   16.861927   18.524882 H          1 MOL1         0.0794
      40    H19     16.806425   16.510425   18.895761 H          1 MOL1         0.0794
      41    O10     16.504443   18.090595   17.582894 O.3        1 MOL1        -0.5486
      42    H20     15.886873   18.852817   17.535077 H          1 MOL1         0.3769
      43    C13     18.470422   24.128822   20.842556 C.3        1 MOL1         0.2972
      44    H21     18.934203   25.109961   20.678083 H          1 MOL1         0.0751
      45    O11     19.438353   23.145810   21.262138 O.3        1 MOL1        -0.3740
      46    C14     17.336469   24.213526   21.896964 C.3        1 MOL1         0.1003
      47    H22     16.563370   24.879092   21.491199 H          1 MOL1         0.0783
      48    O12     17.799429   24.742805   23.144849 O.3        1 MOL1        -0.5519
      49    H23     17.031634   24.653556   23.753792 H          1 MOL1         0.3769
      50    C15     16.696834   22.823478   22.119514 C.3        1 MOL1         0.1053
      51    H24     17.444194   22.170753   22.592980 H          1 MOL1         0.0783
      52    O13     15.553518   22.954353   22.973302 O.3        1 MOL1        -0.5519
      53    H25     15.149274   22.053742   23.045501 H          1 MOL1         0.3769
      54    C16     16.269794   22.176274   20.778708 C.3        1 MOL1         0.1018
      55    H26     15.339194   22.651521   20.441816 H          1 MOL1         0.0783
      56    C17     17.346328   22.301942   19.663406 C.3        1 MOL1         0.1043
      57    H27     18.161521   21.602669   19.883206 H          1 MOL1         0.0783
      58    O14     17.867970   23.654372   19.619626 O.3        1 MOL1        -0.3740
      59    C18     16.808415   21.957135   18.257794 C.3        1 MOL1         0.0138
      60    H28     16.471185   20.913077   18.251390 H          1 MOL1         0.0794
      61    H29     17.631382   22.039024   17.535303 H          1 MOL1         0.0794
      62    O15     15.734006   22.826866   17.888550 O.3        1 MOL1        -0.5486
      63    H30     16.085013   23.741936   17.964730 H          1 MOL1         0.3769
      64    C19     23.346561   22.594825   22.414352 C.3        1 MOL1         0.2972
      65    H31     24.378827   22.683523   22.775773 H          1 MOL1         0.0751
      66    O16     23.115302   21.316353   21.785247 O.3        1 MOL1        -0.3740
      67    C20     22.360160   22.770411   23.596067 C.3        1 MOL1         0.1003
      68    H32     22.539099   23.765724   24.022568 H          1 MOL1         0.0783
      69    O17     22.609177   21.779928   24.607093 O.3        1 MOL1        -0.5519
      70    H33     21.729256   21.528831   25.002226 H          1 MOL1         0.3769
      71    C21     20.889604   22.727940   23.114837 C.3        1 MOL1         0.1053
      72    H34     20.648343   21.695901   22.832220 H          1 MOL1         0.0783
      73    O18     20.038326   23.161573   24.179432 O.3        1 MOL1        -0.5519
      74    H35     19.194878   23.463584   23.768302 H          1 MOL1         0.3769
      75    C22     20.643168   23.634710   21.880818 C.3        1 MOL1         0.1018
      76    H36     20.535416   24.672773   22.223482 H          1 MOL1         0.0783
      77    C23     21.767017   23.541450   20.811492 C.3        1 MOL1         0.1043
      78    H37     21.667657   22.577912   20.294687 H          1 MOL1         0.0783
      79    O19     23.067081   23.624989   21.444098 O.3        1 MOL1        -0.3740
      80    C24     21.692223   24.651250   19.739206 C.3        1 MOL1         0.0138
      81    H38     20.763564   24.533119   19.165293 H          1 MOL1         0.0794
      82    H39     22.527061   24.520489   19.037738 H          1 MOL1         0.0794
      83    O20     21.743083   25.951158   20.334214 O.3        1 MOL1        -0.5486
      84    H40     22.574564   25.981512   20.858021 H          1 MOL1         0.3769
      85    C25     25.132052   17.733194   21.112269 C.3        1 MOL1         0.2972
      86    H41     25.868657   16.960798   20.858771 H          1 MOL1         0.0751
      87    O21     23.823638   17.176494   21.342493 O.3        1 MOL1        -0.3740
      88    C26     25.570969   18.499266   22.385610 C.3        1 MOL1         0.1003
      89    H42     26.531357   18.982601   22.163842 H          1 MOL1         0.0783
      90    O22     25.737415   17.615327   23.501934 O.3        1 MOL1        -0.5519
      91    H43     25.842208   18.214672   24.275374 H          1 MOL1         0.3769
      92    C27     24.550997   19.606536   22.737731 C.3        1 MOL1         0.1053
      93    H44     23.605098   19.121702   23.013946 H          1 MOL1         0.0783
      94    O23     25.046801   20.367250   23.845999 O.3        1 MOL1        -0.5519
      95    H45     24.265740   20.853264   24.212921 H          1 MOL1         0.3769
      96    C28     24.287822   20.524450   21.512796 C.3        1 MOL1         0.1018
      97    H46     25.165485   21.159887   21.333750 H          1 MOL1         0.0783
      98    C29     23.997616   19.714200   20.220264 C.3        1 MOL1         0.1043
      99    H47     23.004716   19.252756   20.301154 H          1 MOL1         0.0783
     100    O24     25.021058   18.699413   20.045175 O.3        1 MOL1        -0.3740
     101    C30     24.016919   20.612922   18.966124 C.3        1 MOL1         0.0138
     102    H48     25.018622   21.046938   18.847173 H          1 MOL1         0.0794
     103    H49     23.309095   21.440432   19.102952 H          1 MOL1         0.0794
     104    O25     23.659589   19.854965   17.809256 O.3        1 MOL1        -0.5486
     105    H50     24.237114   19.060781   17.813109 H          1 MOL1         0.3769
     106    C31     21.473770   13.788528   21.171903 C.3        1 MOL1         0.2972
     107    H51     21.048263   12.788235   21.020357 H          1 MOL1         0.0751
     108    O26     20.467534   14.748980   21.549918 O.3        1 MOL1        -0.3740
     109    C32     22.555913   13.763270   22.279279 C.3        1 MOL1         0.1003
     110    H52     23.343800   13.072161   21.952612 H          1 MOL1         0.0783
     111    O27     22.017734   13.311187   23.529648 O.3        1 MOL1        -0.5519
     112    H53     22.742297   13.457357   24.178738 H          1 MOL1         0.3769
     113    C33     23.191241   15.162121   22.460341 C.3        1 MOL1         0.1053
     114    H54     22.431686   15.829431   22.892052 H          1 MOL1         0.0783
     115    O28     24.310915   15.057648   23.347666 O.3        1 MOL1        -0.5519
     116    H55     24.708001   15.961932   23.413251 H          1 MOL1         0.3769
     117    C34     23.649506   15.767618   21.108407 C.3        1 MOL1         0.1018
     118    H56     24.581515   15.279295   20.794535 H          1 MOL1         0.0783
     119    C35     22.588528   15.614473   19.984064 C.3        1 MOL1         0.1043
     120    H57     21.756528   16.304701   20.172952 H          1 MOL1         0.0783
     121    O29     22.109557   14.247502   19.960045 O.3        1 MOL1        -0.3740
     122    C36     23.168222   15.931341   18.590387 C.3        1 MOL1         0.0138
     123    H58     24.006092   15.252744   18.382334 H          1 MOL1         0.0794
     124    H59     23.556896   16.957740   18.586413 H          1 MOL1         0.0794
     125    O30     22.153057   15.791979   17.595076 O.3        1 MOL1        -0.5486
     126    H60     21.742073   14.913533   17.751713 H          1 MOL1         0.3769
     127    C1      19.389467   19.821884   25.293752 C.2        1 MOL1         0.6173
     128    O1      18.356452   19.847711   25.934565 O.co2      1 MOL1        -0.6755
     129    O2      20.439068   20.287574   25.699743 O.co2      1 MOL1        -0.6755
     130    C2      19.345750   19.179102   23.951723 C.2        1 MOL1        -0.1504
     131    H1      18.377673   18.800022   23.634918 H          1 MOL1         0.0814
     132    C3      20.422824   19.062847   23.143659 C.2        1 MOL1        -0.1394
     133    H2      21.393708   19.442673   23.456411 H          1 MOL1         0.0817
     134    C4      20.380783   18.445032   21.765977 C.3        1 MOL1        -0.1849
     135    H3      19.719025   17.571457   21.757487 H          1 MOL1         0.0736
     136    H4      21.380459   18.086585   21.502714 H          1 MOL1         0.0736
     137    C5      19.901440   19.461600   20.714455 C.3        1 MOL1        -0.1866
     138    H5      18.896926   19.808588   20.988017 H          1 MOL1         0.0738
     139    H6      20.558278   20.341686   20.723603 H          1 MOL1         0.0738
     140    C6      19.876433   18.850373   19.299369 C.3        1 MOL1        -0.2879
     141    H7      20.883079   18.543524   18.985794 H          1 MOL1         0.0750
     142    H8      19.224175   17.968662   19.261678 H          1 MOL1         0.0750
     143    H9      19.502464   19.579104   18.569181 H          1 MOL1         0.0750
@<TRIPOS>BOND
    1     1     2    1
    2     1     3    1
    3     1     4    1
    4     4     5    1
    5     4     6    1
    6     6     7    1
    7     4     8    1
    8     8     9    1
    9     8    10    1
   10    10    11    1
   11     8    12    1
   12    12    13    1
   13    12    14    1
   14    14    15    1
   15     1    16    1
   16    14    16    1
   17    14    17    1
   18    17    18    1
   19    17    19    1
   20    17    20    1
   21    20    21    1
   22    22    23    1
   23    22    24    1
   24    22    25    1
   25    25    26    1
   26    25    27    1
   27    27    28    1
   28    25    29    1
   29    29    30    1
   30    29    31    1
   31    31    32    1
   32     3    33    1
   33    29    33    1
   34    33    34    1
   35    33    35    1
   36    35    36    1
   37    22    37    1
   38    35    37    1
   39    35    38    1
   40    38    39    1
   41    38    40    1
   42    38    41    1
   43    41    42    1
   44    43    44    1
   45    43    45    1
   46    43    46    1
   47    46    47    1
   48    46    48    1
   49    48    49    1
   50    46    50    1
   51    50    51    1
   52    50    52    1
   53    52    53    1
   54    24    54    1
   55    50    54    1
   56    54    55    1
   57    54    56    1
   58    56    57    1
   59    43    58    1
   60    56    58    1
   61    56    59    1
   62    59    60    1
   63    59    61    1
   64    59    62    1
   65    62    63    1
   66    64    65    1
   67    64    66    1
   68    64    67    1
   69    67    68    1
   70    67    69    1
   71    69    70    1
   72    67    71    1
   73    71    72    1
   74    71    73    1
   75    73    74    1
   76    45    75    1
   77    71    75    1
   78    75    76    1
   79    75    77    1
   80    77    78    1
   81    64    79    1
   82    77    79    1
   83    77    80    1
   84    80    81    1
   85    80    82    1
   86    80    83    1
   87    83    84    1
   88    85    86    1
   89    85    87    1
   90    85    88    1
   91    88    89    1
   92    88    90    1
   93    90    91    1
   94    88    92    1
   95    92    93    1
   96    92    94    1
   97    94    95    1
   98    66    96    1
   99    92    96    1
  100    96    97    1
  101    96    98    1
  102    98    99    1
  103    85   100    1
  104    98   100    1
  105    98   101    1
  106   101   102    1
  107   101   103    1
  108   101   104    1
  109   104   105    1
  110   106   107    1
  111    12   108    1
  112   106   108    1
  113   106   109    1
  114   109   110    1
  115   109   111    1
  116   111   112    1
  117   109   113    1
  118   113   114    1
  119   113   115    1
  120   115   116    1
  121    87   117    1
  122   113   117    1
  123   117   118    1
  124   117   119    1
  125   119   120    1
  126   106   121    1
  127   119   121    1
  128   119   122    1
  129   122   123    1
  130   122   124    1
  131   122   125    1
  132   125   126    1
  133   127   128    1
  134   127   129    2
  135   127   130    1
  136   130   131    1
  137   130   132    2
  138   132   133    1
  139   132   134    1
  140   134   135    1
  141   134   136    1
  142   134   137    1
  143   137   138    1
  144   137   139    1
  145   137   140    1
  146   140   141    1
  147   140   142    1
  148   140   143    1
@<TRIPOS>SUBSTRUCTURE
       1 MOL1            1 RESIDUE      1      MOL     
       2 MOL1          143 RESIDUE      1      MOL     
@<SCITEGIC>MOL_PROPERTY
VM2 Rank
SciTegic.value.IntegerValue
6

@<SCITEGIC>MOL_PROPERTY
Conf_Id
SciTegic.value.IntegerValue
19541

@<SCITEGIC>MOL_PROPERTY
Probability
SciTegic.value.DoubleValue
1.05

@<SCITEGIC>MOL_PROPERTY
Sum Probability
SciTegic.value.DoubleValue
7.79

@<SCITEGIC>MOL_PROPERTY
Delta G
SciTegic.value.DoubleValue
0.400

@<SCITEGIC>MOL_PROPERTY
G
SciTegic.value.DoubleValue
488.012

@<SCITEGIC>MOL_PROPERTY
E
SciTegic.value.DoubleValue
308.834

@<SCITEGIC>MOL_PROPERTY
-TS
SciTegic.value.DoubleValue
179.177

@<SCITEGIC>MOL_PROPERTY
U+W
SciTegic.value.DoubleValue
182.746

@<SCITEGIC>MOL_PROPERTY
U
SciTegic.value.DoubleValue
267.375

@<SCITEGIC>MOL_PROPERTY
W
SciTegic.value.DoubleValue
-84.629

@<SCITEGIC>MOL_PROPERTY
W(PB)
SciTegic.value.DoubleValue
-90.659

@<SCITEGIC>MOL_PROPERTY
W(SA)
SciTegic.value.DoubleValue
6.030

@<SCITEGIC>MOL_PROPERTY
Valence
SciTegic.value.DoubleValue
146.347

@<SCITEGIC>MOL_PROPERTY
Coulomb
SciTegic.value.DoubleValue
147.338

@<SCITEGIC>MOL_PROPERTY
VdW
SciTegic.value.DoubleValue
-26.310

@<SCITEGIC>MOL_PROPERTY
VdW6
SciTegic.value.DoubleValue
-170.262

@<SCITEGIC>MOL_PROPERTY
VdW12
SciTegic.value.DoubleValue
143.952

@<SCITEGIC>MOL_PROPERTY
Bond
SciTegic.value.DoubleValue
4.169

@<SCITEGIC>MOL_PROPERTY
Angle
SciTegic.value.DoubleValue
10.907

@<SCITEGIC>MOL_PROPERTY
Pdih
SciTegic.value.DoubleValue
131.270

@<SCITEGIC>MOL_PROPERTY
Idih
SciTegic.value.DoubleValue
0.001

@<SCITEGIC>MOL_PROPERTY
Tether
SciTegic.value.DoubleValue
0.000

@<TRIPOS>MOLECULE
CD_guest-s19_vm2_single.mol2 : vm2 host+ligand conformer 7
         143         148           2
SMALL
USER_CHARGES
 
@<TRIPOS>ATOM
       1    C1      16.164928   15.120868   21.920239 C.3        1 MOL1         0.2972
       2    H1      15.093696   14.921222   22.048311 H          1 MOL1         0.0751
       3    O1      16.425489   16.521420   21.703717 O.3        1 MOL1        -0.3740
       4    C2      16.940145   14.651741   23.176946 C.3        1 MOL1         0.1003
       5    H2      16.766269   13.572991   23.282832 H          1 MOL1         0.0783
       6    O2      16.473342   15.320480   24.356708 O.3        1 MOL1        -0.5519
       7    H3      17.133317   15.091129   25.049078 H          1 MOL1         0.3769
       8    C3      18.461182   14.870884   23.010356 C.3        1 MOL1         0.1053
       9    H4      18.653780   15.951684   23.018577 H          1 MOL1         0.0783
      10    O3      19.155902   14.242777   24.094728 O.3        1 MOL1        -0.5519
      11    H5      20.097003   14.148623   23.807508 H          1 MOL1         0.3769
      12    C4      18.976608   14.288106   21.671395 C.3        1 MOL1         0.1018
      13    H6      19.034249   13.195992   21.772462 H          1 MOL1         0.0783
      14    C5      18.073328   14.660959   20.460809 C.3        1 MOL1         0.1043
      15    H7      18.209128   15.728942   20.242638 H          1 MOL1         0.0783
      16    O4      16.684436   14.397254   20.785175 O.3        1 MOL1        -0.3740
      17    C6      18.403881   13.875192   19.172200 C.3        1 MOL1         0.0138
      18    H8      19.410783   14.148083   18.831243 H          1 MOL1         0.0794
      19    H9      17.701963   14.179644   18.384302 H          1 MOL1         0.0794
      20    O5      18.321183   12.463896   19.392052 O.3        1 MOL1        -0.5486
      21    H10     17.409943   12.289467   19.717004 H          1 MOL1         0.3769
      22    C7      14.644930   20.191338   21.035832 C.3        1 MOL1         0.2972
      23    H11     13.964401   21.021848   20.810380 H          1 MOL1         0.0751
      24    O6      16.007956   20.638854   21.192280 O.3        1 MOL1        -0.3740
      25    C8      14.205596   19.486457   22.343356 C.3        1 MOL1         0.1003
      26    H12     13.192554   19.095272   22.182716 H          1 MOL1         0.0783
      27    O7      14.189406   20.399073   23.449417 O.3        1 MOL1        -0.5519
      28    H13     14.076050   19.826813   24.241499 H          1 MOL1         0.3769
      29    C9      15.134075   18.292160   22.658762 C.3        1 MOL1         0.1053
      30    H14     16.126582   18.693101   22.900030 H          1 MOL1         0.0783
      31    O8      14.617019   17.561050   23.777304 O.3        1 MOL1        -0.5519
      32    H15     15.277406   16.852490   23.981800 H          1 MOL1         0.3769
      33    C10     15.280064   17.350961   21.437196 C.3        1 MOL1         0.1018
      34    H16     14.359507   16.763443   21.321858 H          1 MOL1         0.0783
      35    C11     15.553259   18.114331   20.113254 C.3        1 MOL1         0.1043
      36    H17     16.579661   18.499834   20.125362 H          1 MOL1         0.0783
      37    O9      14.607340   19.204955   19.982227 O.3        1 MOL1        -0.3740
      38    C12     15.392445   17.204851   18.877456 C.3        1 MOL1         0.0138
      39    H18     14.359058   16.836357   18.829824 H          1 MOL1         0.0794
      40    H19     16.052973   16.334391   18.980509 H          1 MOL1         0.0794
      41    O10     15.722102   17.926237   17.689049 O.3        1 MOL1        -0.5486
      42    H20     15.167212   18.737562   17.700047 H          1 MOL1         0.3769
      43    C13     18.522121   23.899308   20.610094 C.3        1 MOL1         0.2972
      44    H21     18.960310   24.865100   20.327710 H          1 MOL1         0.0751
      45    O11     19.538601   22.971457   21.040376 O.3        1 MOL1        -0.3740
      46    C14     17.456942   24.080417   21.728066 C.3        1 MOL1         0.1003
      47    H22     16.676095   24.735785   21.321680 H          1 MOL1         0.0783
      48    O12     18.024713   24.711188   22.886588 O.3        1 MOL1        -0.5519
      49    H23     18.647554   24.057191   23.291229 H          1 MOL1         0.3769
      50    C15     16.790371   22.723795   22.084289 C.3        1 MOL1         0.1053
      51    H24     17.543412   22.084612   22.566953 H          1 MOL1         0.0783
      52    O13     15.679054   22.928011   22.966223 O.3        1 MOL1        -0.5519
      53    H25     15.291420   22.036701   23.148815 H          1 MOL1         0.3769
      54    C16     16.281176   22.000984   20.811306 C.3        1 MOL1         0.1018
      55    H26     15.381608   22.516365   20.449908 H          1 MOL1         0.0783
      56    C17     17.336731   21.974142   19.675139 C.3        1 MOL1         0.1043
      57    H27     18.143598   21.291002   19.967244 H          1 MOL1         0.0783
      58    O14     17.862068   23.309672   19.470306 O.3        1 MOL1        -0.3740
      59    C18     16.770515   21.481744   18.325582 C.3        1 MOL1         0.0138
      60    H28     16.420489   20.449253   18.442619 H          1 MOL1         0.0794
      61    H29     17.582272   21.469132   17.586114 H          1 MOL1         0.0794
      62    O15     15.700641   22.318718   17.876099 O.3        1 MOL1        -0.5486
      63    H30     16.062387   23.232212   17.848542 H          1 MOL1         0.3769
      64    C19     23.464064   22.698013   22.294051 C.3        1 MOL1         0.2972
      65    H31     24.480813   22.857980   22.674710 H          1 MOL1         0.0751
      66    O16     23.326879   21.402485   21.670637 O.3        1 MOL1        -0.3740
      67    C20     22.432552   22.824647   23.445363 C.3        1 MOL1         0.1003
      68    H32     22.501156   23.849008   23.833659 H          1 MOL1         0.0783
      69    O17     22.751796   21.906651   24.504136 O.3        1 MOL1        -0.5519
      70    H33     21.907225   21.496701   24.829398 H          1 MOL1         0.3769
      71    C21     20.991367   22.622606   22.911858 C.3        1 MOL1         0.1053
      72    H34     20.890722   21.583846   22.581223 H          1 MOL1         0.0783
      73    O18     20.039528   22.903744   23.946478 O.3        1 MOL1        -0.5519
      74    H35     20.080420   22.139046   24.576593 H          1 MOL1         0.3769
      75    C22     20.702483   23.526508   21.686140 C.3        1 MOL1         0.1018
      76    H36     20.528161   24.551420   22.038982 H          1 MOL1         0.0783
      77    C23     21.856471   23.516916   20.643101 C.3        1 MOL1         0.1043
      78    H37     21.843798   22.548064   20.126128 H          1 MOL1         0.0783
      79    O19     23.132013   23.698190   21.307795 O.3        1 MOL1        -0.3740
      80    C24     21.727559   24.617175   19.566107 C.3        1 MOL1         0.0138
      81    H38     20.831049   24.424104   18.962329 H          1 MOL1         0.0794
      82    H39     22.592887   24.554023   18.892727 H          1 MOL1         0.0794
      83    O20     21.653756   25.917305   20.158139 O.3        1 MOL1        -0.5486
      84    H40     22.465493   26.017905   20.703593 H          1 MOL1         0.3769
      85    C25     25.157168   17.734561   21.258663 C.3        1 MOL1         0.2972
      86    H41     25.828380   16.881243   21.099919 H          1 MOL1         0.0751
      87    O21     23.776639   17.322811   21.349911 O.3        1 MOL1        -0.3740
      88    C26     25.547759   18.479218   22.557326 C.3        1 MOL1         0.1003
      89    H42     26.569725   18.856856   22.422106 H          1 MOL1         0.0783
      90    O22     25.518050   17.603547   23.692515 O.3        1 MOL1        -0.5519
      91    H43     25.614930   18.201977   24.467436 H          1 MOL1         0.3769
      92    C27     24.623280   19.693596   22.801778 C.3        1 MOL1         0.1053
      93    H44     23.617620   19.313520   23.031489 H          1 MOL1         0.0783
      94    O23     25.131127   20.435694   23.916563 O.3        1 MOL1        -0.5519
      95    H45     24.379998   20.994744   24.236165 H          1 MOL1         0.3769
      96    C28     24.522330   20.604511   21.545882 C.3        1 MOL1         0.1018
      97    H46     25.420212   21.232224   21.471790 H          1 MOL1         0.0783
      98    C29     24.360737   19.802509   20.223620 C.3        1 MOL1         0.1043
      99    H47     23.331461   19.431179   20.171423 H          1 MOL1         0.0783
     100    O24     25.279371   18.682103   20.178539 O.3        1 MOL1        -0.3740
     101    C30     24.607912   20.664885   18.966421 C.3        1 MOL1         0.0138
     102    H48     23.908254   21.511436   18.968978 H          1 MOL1         0.0794
     103    H49     24.391647   20.059903   18.075761 H          1 MOL1         0.0794
     104    O25     25.956909   21.139486   18.927022 O.3        1 MOL1        -0.5486
     105    H50     26.527019   20.343067   19.014776 H          1 MOL1         0.3769
     106    C31     21.291271   13.996700   20.937984 C.3        1 MOL1         0.2972
     107    H51     20.881855   13.011229   20.681077 H          1 MOL1         0.0751
     108    O26     20.274680   14.873737   21.459027 O.3        1 MOL1        -0.3740
     109    C32     22.412872   13.861592   22.001055 C.3        1 MOL1         0.1003
     110    H52     23.182647   13.201402   21.580734 H          1 MOL1         0.0783
     111    O27     21.912738   13.289757   23.218190 O.3        1 MOL1        -0.5519
     112    H53     22.659855   13.365782   23.853478 H          1 MOL1         0.3769
     113    C33     23.072616   15.229286   22.303092 C.3        1 MOL1         0.1053
     114    H54     22.334109   15.859818   22.818166 H          1 MOL1         0.0783
     115    O28     24.215152   15.025934   23.143548 O.3        1 MOL1        -0.5519
     116    H55     24.584665   15.922082   23.344186 H          1 MOL1         0.3769
     117    C34     23.496812   15.952910   21.000450 C.3        1 MOL1         0.1018
     118    H56     24.373264   15.448165   20.572984 H          1 MOL1         0.0783
     119    C35     22.359698   15.963461   19.946653 C.3        1 MOL1         0.1043
     120    H57     21.555743   16.615594   20.308425 H          1 MOL1         0.0783
     121    O29     21.857451   14.617344   19.764254 O.3        1 MOL1        -0.3740
     122    C36     22.815512   16.484039   18.565674 C.3        1 MOL1         0.0138
     123    H58     23.183220   17.512682   18.671802 H          1 MOL1         0.0794
     124    H59     21.945770   16.513788   17.895968 H          1 MOL1         0.0794
     125    O30     23.837895   15.648800   18.014502 O.3        1 MOL1        -0.5486
     126    H60     23.475909   14.734878   18.025056 H          1 MOL1         0.3769
     127    C1      19.440727   19.856304   25.279210 C.2        1 MOL1         0.6173
     128    O1      18.645055   19.820652   26.196721 O.co2      1 MOL1        -0.6755
     129    O2      20.480393   20.490104   25.326757 O.co2      1 MOL1        -0.6755
     130    C2      19.052983   19.191347   24.006537 C.2        1 MOL1        -0.1504
     131    H1      18.050334   18.775316   23.980366 H          1 MOL1         0.0814
     132    C3      19.856600   19.109185   22.922433 C.2        1 MOL1        -0.1394
     133    H2      20.875832   19.490483   22.955351 H          1 MOL1         0.0817
     134    C4      19.416748   18.516944   21.602876 C.3        1 MOL1        -0.1849
     135    H3      18.340696   18.680363   21.472405 H          1 MOL1         0.0736
     136    H4      19.577568   17.434019   21.608286 H          1 MOL1         0.0736
     137    C5      20.178310   19.141912   20.417918 C.3        1 MOL1        -0.1866
     138    H5      20.088343   20.235501   20.452363 H          1 MOL1         0.0738
     139    H6      21.245005   18.912923   20.518281 H          1 MOL1         0.0738
     140    C6      19.659030   18.618432   19.063262 C.3        1 MOL1        -0.2879
     141    H7      19.733402   17.525136   19.007170 H          1 MOL1         0.0750
     142    H8      18.607641   18.893740   18.912939 H          1 MOL1         0.0750
     143    H9      20.241083   19.043476   18.235798 H          1 MOL1         0.0750
@<TRIPOS>BOND
    1     1     2    1
    2     1     3    1
    3     1     4    1
    4     4     5    1
    5     4     6    1
    6     6     7    1
    7     4     8    1
    8     8     9    1
    9     8    10    1
   10    10    11    1
   11     8    12    1
   12    12    13    1
   13    12    14    1
   14    14    15    1
   15     1    16    1
   16    14    16    1
   17    14    17    1
   18    17    18    1
   19    17    19    1
   20    17    20    1
   21    20    21    1
   22    22    23    1
   23    22    24    1
   24    22    25    1
   25    25    26    1
   26    25    27    1
   27    27    28    1
   28    25    29    1
   29    29    30    1
   30    29    31    1
   31    31    32    1
   32     3    33    1
   33    29    33    1
   34    33    34    1
   35    33    35    1
   36    35    36    1
   37    22    37    1
   38    35    37    1
   39    35    38    1
   40    38    39    1
   41    38    40    1
   42    38    41    1
   43    41    42    1
   44    43    44    1
   45    43    45    1
   46    43    46    1
   47    46    47    1
   48    46    48    1
   49    48    49    1
   50    46    50    1
   51    50    51    1
   52    50    52    1
   53    52    53    1
   54    24    54    1
   55    50    54    1
   56    54    55    1
   57    54    56    1
   58    56    57    1
   59    43    58    1
   60    56    58    1
   61    56    59    1
   62    59    60    1
   63    59    61    1
   64    59    62    1
   65    62    63    1
   66    64    65    1
   67    64    66    1
   68    64    67    1
   69    67    68    1
   70    67    69    1
   71    69    70    1
   72    67    71    1
   73    71    72    1
   74    71    73    1
   75    73    74    1
   76    45    75    1
   77    71    75    1
   78    75    76    1
   79    75    77    1
   80    77    78    1
   81    64    79    1
   82    77    79    1
   83    77    80    1
   84    80    81    1
   85    80    82    1
   86    80    83    1
   87    83    84    1
   88    85    86    1
   89    85    87    1
   90    85    88    1
   91    88    89    1
   92    88    90    1
   93    90    91    1
   94    88    92    1
   95    92    93    1
   96    92    94    1
   97    94    95    1
   98    66    96    1
   99    92    96    1
  100    96    97    1
  101    96    98    1
  102    98    99    1
  103    85   100    1
  104    98   100    1
  105    98   101    1
  106   101   102    1
  107   101   103    1
  108   101   104    1
  109   104   105    1
  110   106   107    1
  111    12   108    1
  112   106   108    1
  113   106   109    1
  114   109   110    1
  115   109   111    1
  116   111   112    1
  117   109   113    1
  118   113   114    1
  119   113   115    1
  120   115   116    1
  121    87   117    1
  122   113   117    1
  123   117   118    1
  124   117   119    1
  125   119   120    1
  126   106   121    1
  127   119   121    1
  128   119   122    1
  129   122   123    1
  130   122   124    1
  131   122   125    1
  132   125   126    1
  133   127   128    1
  134   127   129    2
  135   127   130    1
  136   130   131    1
  137   130   132    2
  138   132   133    1
  139   132   134    1
  140   134   135    1
  141   134   136    1
  142   134   137    1
  143   137   138    1
  144   137   139    1
  145   137   140    1
  146   140   141    1
  147   140   142    1
  148   140   143    1
@<TRIPOS>SUBSTRUCTURE
       1 MOL1            1 RESIDUE      1      MOL     
       2 MOL1          143 RESIDUE      1      MOL     
@<SCITEGIC>MOL_PROPERTY
VM2 Rank
SciTegic.value.IntegerValue
7

@<SCITEGIC>MOL_PROPERTY
Conf_Id
SciTegic.value.IntegerValue
14227

@<SCITEGIC>MOL_PROPERTY
Probability
SciTegic.value.DoubleValue
1.04

@<SCITEGIC>MOL_PROPERTY
Sum Probability
SciTegic.value.DoubleValue
8.83

@<SCITEGIC>MOL_PROPERTY
Delta G
SciTegic.value.DoubleValue
0.403

@<SCITEGIC>MOL_PROPERTY
G
SciTegic.value.DoubleValue
488.014

@<SCITEGIC>MOL_PROPERTY
E
SciTegic.value.DoubleValue
306.156

@<SCITEGIC>MOL_PROPERTY
-TS
SciTegic.value.DoubleValue
181.858

@<SCITEGIC>MOL_PROPERTY
U+W
SciTegic.value.DoubleValue
180.068

@<SCITEGIC>MOL_PROPERTY
U
SciTegic.value.DoubleValue
254.748

@<SCITEGIC>MOL_PROPERTY
W
SciTegic.value.DoubleValue
-74.680

@<SCITEGIC>MOL_PROPERTY
W(PB)
SciTegic.value.DoubleValue
-80.786

@<SCITEGIC>MOL_PROPERTY
W(SA)
SciTegic.value.DoubleValue
6.106

@<SCITEGIC>MOL_PROPERTY
Valence
SciTegic.value.DoubleValue
146.513

@<SCITEGIC>MOL_PROPERTY
Coulomb
SciTegic.value.DoubleValue
130.712

@<SCITEGIC>MOL_PROPERTY
VdW
SciTegic.value.DoubleValue
-22.477

@<SCITEGIC>MOL_PROPERTY
VdW6
SciTegic.value.DoubleValue
-171.897

@<SCITEGIC>MOL_PROPERTY
VdW12
SciTegic.value.DoubleValue
149.420

@<SCITEGIC>MOL_PROPERTY
Bond
SciTegic.value.DoubleValue
4.491

@<SCITEGIC>MOL_PROPERTY
Angle
SciTegic.value.DoubleValue
11.335

@<SCITEGIC>MOL_PROPERTY
Pdih
SciTegic.value.DoubleValue
130.664

@<SCITEGIC>MOL_PROPERTY
Idih
SciTegic.value.DoubleValue
0.022

@<SCITEGIC>MOL_PROPERTY
Tether
SciTegic.value.DoubleValue
0.000

@<TRIPOS>MOLECULE
CD_guest-s19_vm2_single.mol2 : vm2 host+ligand conformer 8
         143         148           2
SMALL
USER_CHARGES
 
@<TRIPOS>ATOM
       1    C1      16.393919   15.281424   21.946177 C.3        1 MOL1         0.2972
       2    H1      15.310775   15.152570   22.066938 H          1 MOL1         0.0751
       3    O1      16.732892   16.649054   21.641713 O.3        1 MOL1        -0.3740
       4    C2      17.113375   14.855052   23.247768 C.3        1 MOL1         0.1003
       5    H2      16.854492   13.804069   23.430833 H          1 MOL1         0.0783
       6    O2      16.675517   15.644710   24.362227 O.3        1 MOL1        -0.5519
       7    H3      17.318515   15.443250   25.078528 H          1 MOL1         0.3769
       8    C3      18.649774   14.940666   23.097502 C.3        1 MOL1         0.1053
       9    H4      18.931791   15.999966   23.034925 H          1 MOL1         0.0783
      10    O3      19.261351   14.338193   24.243626 O.3        1 MOL1        -0.5519
      11    H5      20.215024   14.200595   24.021378 H          1 MOL1         0.3769
      12    C4      19.138041   14.226570   21.809756 C.3        1 MOL1         0.1018
      13    H6      19.096227   13.140835   21.969423 H          1 MOL1         0.0783
      14    C5      18.292106   14.603202   20.563446 C.3        1 MOL1         0.1043
      15    H7      18.517354   15.642215   20.290804 H          1 MOL1         0.0783
      16    O4      16.885561   14.450051   20.875521 O.3        1 MOL1        -0.3740
      17    C6      18.586855   13.709384   19.341381 C.3        1 MOL1         0.0138
      18    H8      18.309509   12.672761   19.574683 H          1 MOL1         0.0794
      19    H9      19.662439   13.729608   19.123591 H          1 MOL1         0.0794
      20    O5      17.856916   14.182102   18.206848 O.3        1 MOL1        -0.5486
      21    H10     16.935626   14.343984   18.514944 H          1 MOL1         0.3769
      22    C7      14.821751   20.245811   20.710946 C.3        1 MOL1         0.2972
      23    H11     14.101001   20.994387   20.358613 H          1 MOL1         0.0751
      24    O6      16.066375   20.848716   21.112547 O.3        1 MOL1        -0.3740
      25    C8      14.245026   19.477383   21.928883 C.3        1 MOL1         0.1003
      26    H12     13.311234   18.999628   21.605175 H          1 MOL1         0.0783
      27    O7      13.968513   20.368027   23.019524 O.3        1 MOL1        -0.5519
      28    H13     13.780864   19.775523   23.782030 H          1 MOL1         0.3769
      29    C9      15.214958   18.364542   22.393041 C.3        1 MOL1         0.1053
      30    H14     16.116955   18.847392   22.792248 H          1 MOL1         0.0783
      31    O8      14.593240   17.576077   23.415828 O.3        1 MOL1        -0.5519
      32    H15     15.298566   16.983544   23.778302 H          1 MOL1         0.3769
      33    C10     15.629849   17.463154   21.202360 C.3        1 MOL1         0.1018
      34    H16     14.771173   16.852073   20.893775 H          1 MOL1         0.0783
      35    C11     16.105609   18.293085   19.982402 C.3        1 MOL1         0.1043
      36    H17     17.055498   18.778726   20.237806 H          1 MOL1         0.0783
      37    O9      15.103684   19.290405   19.666113 O.3        1 MOL1        -0.3740
      38    C12     16.331937   17.441924   18.712922 C.3        1 MOL1         0.0138
      39    H18     17.139851   16.725929   18.902894 H          1 MOL1         0.0794
      40    H19     16.666082   18.101532   17.901097 H          1 MOL1         0.0794
      41    O10     15.140684   16.747642   18.330641 O.3        1 MOL1        -0.5486
      42    H20     14.445082   17.434235   18.229771 H          1 MOL1         0.3769
      43    C13     18.408615   24.196690   20.830009 C.3        1 MOL1         0.2972
      44    H21     18.880675   25.174573   20.669669 H          1 MOL1         0.0751
      45    O11     19.389596   23.175866   21.111488 O.3        1 MOL1        -0.3740
      46    C14     17.363084   24.259428   21.975411 C.3        1 MOL1         0.1003
      47    H22     16.564986   24.937335   21.646817 H          1 MOL1         0.0783
      48    O12     17.942505   24.785882   23.178499 O.3        1 MOL1        -0.5519
      49    H23     18.557606   24.092572   23.524725 H          1 MOL1         0.3769
      50    C15     16.731182   22.859356   22.197387 C.3        1 MOL1         0.1053
      51    H24     17.507441   22.189375   22.593394 H          1 MOL1         0.0783
      52    O13     15.635766   22.933134   23.119106 O.3        1 MOL1        -0.5519
      53    H25     15.225421   22.034232   23.141866 H          1 MOL1         0.3769
      54    C16     16.202647   22.260457   20.868375 C.3        1 MOL1         0.1018
      55    H26     15.238189   22.734091   20.642284 H          1 MOL1         0.0783
      56    C17     17.166199   22.444756   19.660535 C.3        1 MOL1         0.1043
      57    H27     17.989659   21.726151   19.759231 H          1 MOL1         0.0783
      58    O14     17.696909   23.793638   19.642436 O.3        1 MOL1        -0.3740
      59    C18     16.491407   22.196015   18.293154 C.3        1 MOL1         0.0138
      60    H28     16.155482   21.152957   18.239631 H          1 MOL1         0.0794
      61    H29     17.239174   22.337273   17.501401 H          1 MOL1         0.0794
      62    O15     15.386175   23.082741   18.094192 O.3        1 MOL1        -0.5486
      63    H30     15.744640   23.992834   18.193028 H          1 MOL1         0.3769
      64    C19     23.275222   22.507398   22.321421 C.3        1 MOL1         0.2972
      65    H31     24.299677   22.574504   22.707724 H          1 MOL1         0.0751
      66    O16     23.055568   21.269784   21.609069 O.3        1 MOL1        -0.3740
      67    C20     22.258991   22.596218   23.488144 C.3        1 MOL1         0.1003
      68    H32     22.407475   23.567461   23.977413 H          1 MOL1         0.0783
      69    O17     22.515055   21.550001   24.442610 O.3        1 MOL1        -0.5519
      70    H33     21.644390   21.236753   24.803165 H          1 MOL1         0.3769
      71    C21     20.803042   22.559160   22.953706 C.3        1 MOL1         0.1053
      72    H34     20.607033   21.561019   22.545614 H          1 MOL1         0.0783
      73    O18     19.888629   22.842940   24.020261 O.3        1 MOL1        -0.5519
      74    H35     19.864130   22.035359   24.596736 H          1 MOL1         0.3769
      75    C22     20.584284   23.581859   21.807084 C.3        1 MOL1         0.1018
      76    H36     20.486245   24.585204   22.242267 H          1 MOL1         0.0783
      77    C23     21.730252   23.570383   20.757783 C.3        1 MOL1         0.1043
      78    H37     21.645839   22.648889   20.167077 H          1 MOL1         0.0783
      79    O19     23.014794   23.605116   21.422861 O.3        1 MOL1        -0.3740
      80    C24     21.676192   24.760095   19.773588 C.3        1 MOL1         0.0138
      81    H38     20.758843   24.687482   19.174454 H          1 MOL1         0.0794
      82    H39     22.525113   24.683079   19.080976 H          1 MOL1         0.0794
      83    O20     21.713926   26.010069   20.468393 O.3        1 MOL1        -0.5486
      84    H40     22.535247   25.999173   21.008717 H          1 MOL1         0.3769
      85    C25     25.078851   17.666769   20.961445 C.3        1 MOL1         0.2972
      86    H41     25.817329   16.901567   20.691455 H          1 MOL1         0.0751
      87    O21     23.793412   17.091091   21.266087 O.3        1 MOL1        -0.3740
      88    C26     25.557700   18.476171   22.193992 C.3        1 MOL1         0.1003
      89    H42     26.498277   18.969911   21.917044 H          1 MOL1         0.0783
      90    O22     25.790056   17.628633   23.326486 O.3        1 MOL1        -0.5519
      91    H43     25.919554   18.253466   24.075836 H          1 MOL1         0.3769
      92    C27     24.534009   19.576582   22.561780 C.3        1 MOL1         0.1053
      93    H44     23.600687   19.086034   22.871759 H          1 MOL1         0.0783
      94    O23     25.053779   20.351631   23.649127 O.3        1 MOL1        -0.5519
      95    H45     24.269614   20.794865   24.059521 H          1 MOL1         0.3769
      96    C28     24.223864   20.471434   21.328500 C.3        1 MOL1         0.1018
      97    H46     25.090711   21.106038   21.101444 H          1 MOL1         0.0783
      98    C29     23.885636   19.614639   20.077008 C.3        1 MOL1         0.1043
      99    H47     22.913619   19.133725   20.239779 H          1 MOL1         0.0783
     100    O24     24.902971   18.600770   19.874762 O.3        1 MOL1        -0.3740
     101    C30     23.788159   20.445998   18.779047 C.3        1 MOL1         0.0138
     102    H48     23.003540   21.204580   18.896461 H          1 MOL1         0.0794
     103    H49     23.483136   19.782698   17.958756 H          1 MOL1         0.0794
     104    O25     25.038300   21.070650   18.473227 O.3        1 MOL1        -0.5486
     105    H50     25.707208   20.350238   18.468705 H          1 MOL1         0.3769
     106    C31     21.488124   13.687526   21.322869 C.3        1 MOL1         0.2972
     107    H51     21.057117   12.680787   21.257809 H          1 MOL1         0.0751
     108    O26     20.480991   14.689935   21.572700 O.3        1 MOL1        -0.3740
     109    C32     22.545772   13.756035   22.451256 C.3        1 MOL1         0.1003
     110    H52     23.347824   13.052682   22.191840 H          1 MOL1         0.0783
     111    O27     21.990532   13.388535   23.720254 O.3        1 MOL1        -0.5519
     112    H53     22.700053   13.597382   24.369336 H          1 MOL1         0.3769
     113    C33     23.162937   15.170458   22.538187 C.3        1 MOL1         0.1053
     114    H54     22.384030   15.865100   22.883461 H          1 MOL1         0.0783
     115    O28     24.248118   15.149895   23.472916 O.3        1 MOL1        -0.5519
     116    H55     24.674320   16.042198   23.434690 H          1 MOL1         0.3769
     117    C34     23.669547   15.660684   21.157464 C.3        1 MOL1         0.1018
     118    H56     24.630720   15.175548   20.942486 H          1 MOL1         0.0783
     119    C35     22.670666   15.374612   19.999123 C.3        1 MOL1         0.1043
     120    H57     21.834661   16.080756   20.071967 H          1 MOL1         0.0783
     121    O29     22.162412   14.020033   20.090923 O.3        1 MOL1        -0.3740
     122    C36     23.303481   15.548972   18.601294 C.3        1 MOL1         0.0138
     123    H58     23.645945   16.586398   18.489595 H          1 MOL1         0.0794
     124    H59     22.531095   15.374504   17.840332 H          1 MOL1         0.0794
     125    O30     24.396712   14.644788   18.415866 O.3        1 MOL1        -0.5486
     126    H60     24.038873   13.745437   18.588249 H          1 MOL1         0.3769
     127    C1      19.138543   19.668310   24.947547 C.2        1 MOL1         0.6173
     128    O1      18.119950   19.585001   25.604109 O.co2      1 MOL1        -0.6755
     129    O2      20.087384   20.360722   25.275393 O.co2      1 MOL1        -0.6755
     130    C2      19.173582   18.959209   23.640331 C.2        1 MOL1        -0.1504
     131    H1      18.263225   18.438535   23.357194 H          1 MOL1         0.0814
     132    C3      20.246744   18.955165   22.819012 C.2        1 MOL1        -0.1394
     133    H2      21.168668   19.460153   23.101912 H          1 MOL1         0.0817
     134    C4      20.264477   18.299983   21.459464 C.3        1 MOL1        -0.1849
     135    H3      19.496245   17.519924   21.398614 H          1 MOL1         0.0736
     136    H4      21.230559   17.806532   21.315126 H          1 MOL1         0.0736
     137    C5      20.034678   19.339842   20.345446 C.3        1 MOL1        -0.1866
     138    H5      19.058155   19.817499   20.493037 H          1 MOL1         0.0738
     139    H6      20.784316   20.138299   20.421072 H          1 MOL1         0.0738
     140    C6      20.099695   18.698208   18.945233 C.3        1 MOL1        -0.2879
     141    H7      21.089140   18.261494   18.759730 H          1 MOL1         0.0750
     142    H8      19.352427   17.901479   18.843796 H          1 MOL1         0.0750
     143    H9      19.907336   19.447954   18.167290 H          1 MOL1         0.0750
@<TRIPOS>BOND
    1     1     2    1
    2     1     3    1
    3     1     4    1
    4     4     5    1
    5     4     6    1
    6     6     7    1
    7     4     8    1
    8     8     9    1
    9     8    10    1
   10    10    11    1
   11     8    12    1
   12    12    13    1
   13    12    14    1
   14    14    15    1
   15     1    16    1
   16    14    16    1
   17    14    17    1
   18    17    18    1
   19    17    19    1
   20    17    20    1
   21    20    21    1
   22    22    23    1
   23    22    24    1
   24    22    25    1
   25    25    26    1
   26    25    27    1
   27    27    28    1
   28    25    29    1
   29    29    30    1
   30    29    31    1
   31    31    32    1
   32     3    33    1
   33    29    33    1
   34    33    34    1
   35    33    35    1
   36    35    36    1
   37    22    37    1
   38    35    37    1
   39    35    38    1
   40    38    39    1
   41    38    40    1
   42    38    41    1
   43    41    42    1
   44    43    44    1
   45    43    45    1
   46    43    46    1
   47    46    47    1
   48    46    48    1
   49    48    49    1
   50    46    50    1
   51    50    51    1
   52    50    52    1
   53    52    53    1
   54    24    54    1
   55    50    54    1
   56    54    55    1
   57    54    56    1
   58    56    57    1
   59    43    58    1
   60    56    58    1
   61    56    59    1
   62    59    60    1
   63    59    61    1
   64    59    62    1
   65    62    63    1
   66    64    65    1
   67    64    66    1
   68    64    67    1
   69    67    68    1
   70    67    69    1
   71    69    70    1
   72    67    71    1
   73    71    72    1
   74    71    73    1
   75    73    74    1
   76    45    75    1
   77    71    75    1
   78    75    76    1
   79    75    77    1
   80    77    78    1
   81    64    79    1
   82    77    79    1
   83    77    80    1
   84    80    81    1
   85    80    82    1
   86    80    83    1
   87    83    84    1
   88    85    86    1
   89    85    87    1
   90    85    88    1
   91    88    89    1
   92    88    90    1
   93    90    91    1
   94    88    92    1
   95    92    93    1
   96    92    94    1
   97    94    95    1
   98    66    96    1
   99    92    96    1
  100    96    97    1
  101    96    98    1
  102    98    99    1
  103    85   100    1
  104    98   100    1
  105    98   101    1
  106   101   102    1
  107   101   103    1
  108   101   104    1
  109   104   105    1
  110   106   107    1
  111    12   108    1
  112   106   108    1
  113   106   109    1
  114   109   110    1
  115   109   111    1
  116   111   112    1
  117   109   113    1
  118   113   114    1
  119   113   115    1
  120   115   116    1
  121    87   117    1
  122   113   117    1
  123   117   118    1
  124   117   119    1
  125   119   120    1
  126   106   121    1
  127   119   121    1
  128   119   122    1
  129   122   123    1
  130   122   124    1
  131   122   125    1
  132   125   126    1
  133   127   128    1
  134   127   129    2
  135   127   130    1
  136   130   131    1
  137   130   132    2
  138   132   133    1
  139   132   134    1
  140   134   135    1
  141   134   136    1
  142   134   137    1
  143   137   138    1
  144   137   139    1
  145   137   140    1
  146   140   141    1
  147   140   142    1
  148   140   143    1
@<TRIPOS>SUBSTRUCTURE
       1 MOL1            1 RESIDUE      1      MOL     
       2 MOL1          143 RESIDUE      1      MOL     
@<SCITEGIC>MOL_PROPERTY
VM2 Rank
SciTegic.value.IntegerValue
8

@<SCITEGIC>MOL_PROPERTY
Conf_Id
SciTegic.value.IntegerValue
22567

@<SCITEGIC>MOL_PROPERTY
Probability
SciTegic.value.DoubleValue
0.96

@<SCITEGIC>MOL_PROPERTY
Sum Probability
SciTegic.value.DoubleValue
9.79

@<SCITEGIC>MOL_PROPERTY
Delta G
SciTegic.value.DoubleValue
0.452

@<SCITEGIC>MOL_PROPERTY
G
SciTegic.value.DoubleValue
488.063

@<SCITEGIC>MOL_PROPERTY
E
SciTegic.value.DoubleValue
305.453

@<SCITEGIC>MOL_PROPERTY
-TS
SciTegic.value.DoubleValue
182.610

@<SCITEGIC>MOL_PROPERTY
U+W
SciTegic.value.DoubleValue
179.365

@<SCITEGIC>MOL_PROPERTY
U
SciTegic.value.DoubleValue
253.244

@<SCITEGIC>MOL_PROPERTY
W
SciTegic.value.DoubleValue
-73.879

@<SCITEGIC>MOL_PROPERTY
W(PB)
SciTegic.value.DoubleValue
-79.921

@<SCITEGIC>MOL_PROPERTY
W(SA)
SciTegic.value.DoubleValue
6.042

@<SCITEGIC>MOL_PROPERTY
Valence
SciTegic.value.DoubleValue
146.086

@<SCITEGIC>MOL_PROPERTY
Coulomb
SciTegic.value.DoubleValue
130.732

@<SCITEGIC>MOL_PROPERTY
VdW
SciTegic.value.DoubleValue
-23.573

@<SCITEGIC>MOL_PROPERTY
VdW6
SciTegic.value.DoubleValue
-174.409

@<SCITEGIC>MOL_PROPERTY
VdW12
SciTegic.value.DoubleValue
150.835

@<SCITEGIC>MOL_PROPERTY
Bond
SciTegic.value.DoubleValue
4.504

@<SCITEGIC>MOL_PROPERTY
Angle
SciTegic.value.DoubleValue
11.655

@<SCITEGIC>MOL_PROPERTY
Pdih
SciTegic.value.DoubleValue
129.914

@<SCITEGIC>MOL_PROPERTY
Idih
SciTegic.value.DoubleValue
0.014

@<SCITEGIC>MOL_PROPERTY
Tether
SciTegic.value.DoubleValue
0.000

