@<TRIPOS>MOLECULE
CD_guest-s18_vm2_single.mol2 : vm2 host+ligand conformer 1
         142         147           2
SMALL
USER_CHARGES
 
@<TRIPOS>ATOM
       1    C1      16.445765   15.238645   21.932388 C.3        1 MOL1         0.2972
       2    H1      15.412860   15.096174   22.273659 H          1 MOL1         0.0751
       3    O1      16.628061   16.530928   21.316124 O.3        1 MOL1        -0.3740
       4    C2      17.430903   15.103702   23.122313 C.3        1 MOL1         0.1003
       5    H2      17.322366   14.086293   23.519423 H          1 MOL1         0.0783
       6    O2      17.099659   16.040872   24.160570 O.3        1 MOL1        -0.5519
       7    H3      17.929371   16.540312   24.388562 H          1 MOL1         0.3769
       8    C3      18.896187   15.264450   22.641649 C.3        1 MOL1         0.1053
       9    H4      19.037675   16.295710   22.295178 H          1 MOL1         0.0783
      10    O3      19.793683   14.990358   23.724509 O.3        1 MOL1        -0.5519
      11    H5      19.813702   15.822850   24.268557 H          1 MOL1         0.3769
      12    C4      19.205553   14.321337   21.450301 C.3        1 MOL1         0.1018
      13    H6      19.311405   13.295887   21.827272 H          1 MOL1         0.0783
      14    C5      18.102492   14.365764   20.356221 C.3        1 MOL1         0.1043
      15    H7      18.169860   15.331575   19.838745 H          1 MOL1         0.0783
      16    O4      16.792522   14.227955   20.961331 O.3        1 MOL1        -0.3740
      17    C6      18.249672   13.256167   19.291325 C.3        1 MOL1         0.0138
      18    H8      19.189047   13.408860   18.743592 H          1 MOL1         0.0794
      19    H9      17.430203   13.351948   18.566502 H          1 MOL1         0.0794
      20    O5      18.233398   11.957040   19.890137 O.3        1 MOL1        -0.5486
      21    H10     17.390758   11.896667   20.393011 H          1 MOL1         0.3769
      22    C7      14.661477   20.194337   21.053349 C.3        1 MOL1         0.2972
      23    H11     13.944680   21.004773   20.870961 H          1 MOL1         0.0751
      24    O6      15.970948   20.696538   21.383297 O.3        1 MOL1        -0.3740
      25    C8      14.183726   19.301840   22.224618 C.3        1 MOL1         0.1003
      26    H12     13.210119   18.881643   21.940684 H          1 MOL1         0.0783
      27    O7      14.035803   20.062993   23.431911 O.3        1 MOL1        -0.5519
      28    H13     13.877556   19.388983   24.130605 H          1 MOL1         0.3769
      29    C9      15.160559   18.124507   22.462067 C.3        1 MOL1         0.1053
      30    H14     16.105557   18.540130   22.837757 H          1 MOL1         0.0783
      31    O8      14.591228   17.251815   23.444916 O.3        1 MOL1        -0.5519
      32    H15     15.354233   16.759048   23.837559 H          1 MOL1         0.3769
      33    C10     15.456864   17.354960   21.141220 C.3        1 MOL1         0.1018
      34    H16     14.584830   16.748150   20.863726 H          1 MOL1         0.0783
      35    C11     15.787108   18.315627   19.967283 C.3        1 MOL1         0.1043
      36    H17     16.777334   18.759267   20.136672 H          1 MOL1         0.0783
      37    O9      14.775212   19.349656   19.889249 O.3        1 MOL1        -0.3740
      38    C12     15.809804   17.583158   18.609487 C.3        1 MOL1         0.0138
      39    H18     14.824826   17.134970   18.422759 H          1 MOL1         0.0794
      40    H19     16.545643   16.769168   18.650493 H          1 MOL1         0.0794
      41    O10     16.149645   18.496992   17.564697 O.3        1 MOL1        -0.5486
      42    H20     15.521206   19.247318   17.649565 H          1 MOL1         0.3769
      43    C13     18.347688   24.086018   21.393449 C.3        1 MOL1         0.2972
      44    H21     18.738027   25.110418   21.349617 H          1 MOL1         0.0751
      45    O11     19.408530   23.113458   21.491939 O.3        1 MOL1        -0.3740
      46    C14     17.417174   23.932982   22.622796 C.3        1 MOL1         0.1003
      47    H22     16.597613   24.653655   22.504314 H          1 MOL1         0.0783
      48    O12     18.117600   24.212032   23.843230 O.3        1 MOL1        -0.5519
      49    H23     17.499795   23.927749   24.553821 H          1 MOL1         0.3769
      50    C15     16.799100   22.517437   22.680893 C.3        1 MOL1         0.1053
      51    H24     17.604126   21.804804   22.901022 H          1 MOL1         0.0783
      52    O13     15.808268   22.468144   23.714890 O.3        1 MOL1        -0.5519
      53    H25     15.344652   21.598898   23.621632 H          1 MOL1         0.3769
      54    C16     16.155188   22.122224   21.329223 C.3        1 MOL1         0.1018
      55    H26     15.203457   22.659469   21.224126 H          1 MOL1         0.0783
      56    C17     17.071634   22.435104   20.114247 C.3        1 MOL1         0.1043
      57    H27     17.912071   21.728347   20.118695 H          1 MOL1         0.0783
      58    O14     17.570692   23.791931   20.213367 O.3        1 MOL1        -0.3740
      59    C18     16.352673   22.301995   18.753925 C.3        1 MOL1         0.0138
      60    H28     16.035498   21.260891   18.616692 H          1 MOL1         0.0794
      61    H29     17.067415   22.533439   17.952985 H          1 MOL1         0.0794
      62    O15     15.223521   23.177320   18.679199 O.3        1 MOL1        -0.5486
      63    H30     15.566903   24.081154   18.857057 H          1 MOL1         0.3769
      64    C19     23.518568   22.652488   21.086031 C.3        1 MOL1         0.2972
      65    H31     24.588586   22.789464   20.883898 H          1 MOL1         0.0751
      66    O16     23.204292   21.265934   21.323381 O.3        1 MOL1        -0.3740
      67    C20     23.071335   23.509427   22.303003 C.3        1 MOL1         0.1003
      68    H32     23.268492   24.558432   22.047927 H          1 MOL1         0.0783
      69    O17     23.829008   23.170790   23.475455 O.3        1 MOL1        -0.5519
      70    H33     23.572791   22.248419   23.727005 H          1 MOL1         0.3769
      71    C21     21.545424   23.363504   22.548507 C.3        1 MOL1         0.1053
      72    H34     21.352169   22.337288   22.886619 H          1 MOL1         0.0783
      73    O18     21.099586   24.298674   23.539292 O.3        1 MOL1        -0.5519
      74    H35     20.126436   24.158254   23.645970 H          1 MOL1         0.3769
      75    C22     20.740662   23.605501   21.246655 C.3        1 MOL1         0.1018
      76    H36     20.748798   24.680981   21.025754 H          1 MOL1         0.0783
      77    C23     21.319088   22.839775   20.027442 C.3        1 MOL1         0.1043
      78    H37     21.118537   21.768060   20.157419 H          1 MOL1         0.0783
      79    O19     22.747023   23.075593   19.942931 O.3        1 MOL1        -0.3740
      80    C24     20.698873   23.278951   18.682420 C.3        1 MOL1         0.0138
      81    H38     19.619923   23.080831   18.700684 H          1 MOL1         0.0794
      82    H39     21.130403   22.666281   17.879729 H          1 MOL1         0.0794
      83    O20     20.942290   24.666545   18.431706 O.3        1 MOL1        -0.5486
      84    H40     21.915680   24.787503   18.497738 H          1 MOL1         0.3769
      85    C25     24.912797   17.589896   22.105222 C.3        1 MOL1         0.2972
      86    H41     25.549156   16.738776   22.378527 H          1 MOL1         0.0751
      87    O21     23.732554   17.168105   21.389945 O.3        1 MOL1        -0.3740
      88    C26     24.482393   18.374489   23.371284 C.3        1 MOL1         0.1003
      89    H42     25.393820   18.776419   23.832098 H          1 MOL1         0.0783
      90    O22     23.835572   17.500284   24.311320 O.3        1 MOL1        -0.5519
      91    H43     22.933231   17.875128   24.499730 H          1 MOL1         0.3769
      92    C27     23.582883   19.573735   22.977840 C.3        1 MOL1         0.1053
      93    H44     22.649845   19.172675   22.564905 H          1 MOL1         0.0783
      94    O23     23.290836   20.376220   24.128432 O.3        1 MOL1        -0.5519
      95    H45     22.585038   19.875444   24.615735 H          1 MOL1         0.3769
      96    C28     24.250143   20.449221   21.886615 C.3        1 MOL1         0.1018
      97    H46     25.035534   21.055104   22.357352 H          1 MOL1         0.0783
      98    C29     24.854888   19.608806   20.725020 C.3        1 MOL1         0.1043
      99    H47     24.026724   19.216563   20.119464 H          1 MOL1         0.0783
     100    O24     25.634701   18.507294   21.256091 O.3        1 MOL1        -0.3740
     101    C30     25.771591   20.421147   19.783173 C.3        1 MOL1         0.0138
     102    H48     25.170840   21.180545   19.265534 H          1 MOL1         0.0794
     103    H49     26.174181   19.746961   19.015367 H          1 MOL1         0.0794
     104    O25     26.838140   21.042957   20.505829 O.3        1 MOL1        -0.5486
     105    H50     27.320360   20.318481   20.963144 H          1 MOL1         0.3769
     106    C31     21.458117   13.836740   20.563851 C.3        1 MOL1         0.2972
     107    H51     21.033327   12.876967   20.242959 H          1 MOL1         0.0751
     108    O26     20.420809   14.802589   20.841737 O.3        1 MOL1        -0.3740
     109    C32     22.380898   13.654248   21.798934 C.3        1 MOL1         0.1003
     110    H52     23.215104   13.015470   21.481847 H          1 MOL1         0.0783
     111    O27     21.692023   12.999722   22.875037 O.3        1 MOL1        -0.5519
     112    H53     21.075865   13.671104   23.260944 H          1 MOL1         0.3769
     113    C33     22.976530   15.017885   22.241202 C.3        1 MOL1         0.1053
     114    H54     22.157365   15.637999   22.631180 H          1 MOL1         0.0783
     115    O28     23.959471   14.810681   23.262506 O.3        1 MOL1        -0.5519
     116    H55     23.993038   15.652814   23.778995 H          1 MOL1         0.3769
     117    C34     23.625270   15.773202   21.045130 C.3        1 MOL1         0.1018
     118    H56     24.609760   15.339077   20.825594 H          1 MOL1         0.0783
     119    C35     22.766893   15.731024   19.752123 C.3        1 MOL1         0.1043
     120    H57     21.923306   16.424072   19.867249 H          1 MOL1         0.0783
     121    O29     22.285713   14.383881   19.517278 O.3        1 MOL1        -0.3740
     122    C36     23.578002   16.160615   18.511990 C.3        1 MOL1         0.0138
     123    H58     24.391979   15.442464   18.345437 H          1 MOL1         0.0794
     124    H59     24.031530   17.143264   18.698339 H          1 MOL1         0.0794
     125    O30     22.725285   16.225790   17.367502 O.3        1 MOL1        -0.5486
     126    H60     22.221462   15.381349   17.356849 H          1 MOL1         0.3769
     127    C1      20.123822   18.482455   24.419133 C.2        1 MOL1         0.6075
     128    O1      21.285438   18.553153   24.773723 O.co2      1 MOL1        -0.6830
     129    O2      19.390151   17.554972   24.705169 O.co2      1 MOL1        -0.6830
     130    C2      19.555911   19.630284   23.586945 C.3        1 MOL1        -0.2050
     131    H1      20.309418   20.422420   23.523489 H          1 MOL1         0.0710
     132    H2      18.710033   20.042589   24.148460 H          1 MOL1         0.0710
     133    C3      19.082571   19.235803   22.163135 C.3        1 MOL1        -0.1947
     134    H3      18.338273   18.435134   22.238320 H          1 MOL1         0.0712
     135    H4      18.573884   20.093860   21.710875 H          1 MOL1         0.0712
     136    C4      20.231134   18.800051   21.230246 C.3        1 MOL1        -0.1921
     137    H5      20.758543   17.936640   21.658987 H          1 MOL1         0.0712
     138    H6      20.960486   19.614717   21.143793 H          1 MOL1         0.0712
     139    C5      19.708075   18.439706   19.825828 C.3        1 MOL1        -0.2936
     140    H7      20.537471   18.173652   19.158651 H          1 MOL1         0.0724
     141    H8      19.171515   19.285204   19.376593 H          1 MOL1         0.0724
     142    H9      19.022910   17.584353   19.873692 H          1 MOL1         0.0724
@<TRIPOS>BOND
    1     1     2    1
    2     1     3    1
    3     1     4    1
    4     4     5    1
    5     4     6    1
    6     6     7    1
    7     4     8    1
    8     8     9    1
    9     8    10    1
   10    10    11    1
   11     8    12    1
   12    12    13    1
   13    12    14    1
   14    14    15    1
   15     1    16    1
   16    14    16    1
   17    14    17    1
   18    17    18    1
   19    17    19    1
   20    17    20    1
   21    20    21    1
   22    22    23    1
   23    22    24    1
   24    22    25    1
   25    25    26    1
   26    25    27    1
   27    27    28    1
   28    25    29    1
   29    29    30    1
   30    29    31    1
   31    31    32    1
   32     3    33    1
   33    29    33    1
   34    33    34    1
   35    33    35    1
   36    35    36    1
   37    22    37    1
   38    35    37    1
   39    35    38    1
   40    38    39    1
   41    38    40    1
   42    38    41    1
   43    41    42    1
   44    43    44    1
   45    43    45    1
   46    43    46    1
   47    46    47    1
   48    46    48    1
   49    48    49    1
   50    46    50    1
   51    50    51    1
   52    50    52    1
   53    52    53    1
   54    24    54    1
   55    50    54    1
   56    54    55    1
   57    54    56    1
   58    56    57    1
   59    43    58    1
   60    56    58    1
   61    56    59    1
   62    59    60    1
   63    59    61    1
   64    59    62    1
   65    62    63    1
   66    64    65    1
   67    64    66    1
   68    64    67    1
   69    67    68    1
   70    67    69    1
   71    69    70    1
   72    67    71    1
   73    71    72    1
   74    71    73    1
   75    73    74    1
   76    45    75    1
   77    71    75    1
   78    75    76    1
   79    75    77    1
   80    77    78    1
   81    64    79    1
   82    77    79    1
   83    77    80    1
   84    80    81    1
   85    80    82    1
   86    80    83    1
   87    83    84    1
   88    85    86    1
   89    85    87    1
   90    85    88    1
   91    88    89    1
   92    88    90    1
   93    90    91    1
   94    88    92    1
   95    92    93    1
   96    92    94    1
   97    94    95    1
   98    66    96    1
   99    92    96    1
  100    96    97    1
  101    96    98    1
  102    98    99    1
  103    85   100    1
  104    98   100    1
  105    98   101    1
  106   101   102    1
  107   101   103    1
  108   101   104    1
  109   104   105    1
  110   106   107    1
  111    12   108    1
  112   106   108    1
  113   106   109    1
  114   109   110    1
  115   109   111    1
  116   111   112    1
  117   109   113    1
  118   113   114    1
  119   113   115    1
  120   115   116    1
  121    87   117    1
  122   113   117    1
  123   117   118    1
  124   117   119    1
  125   119   120    1
  126   106   121    1
  127   119   121    1
  128   119   122    1
  129   122   123    1
  130   122   124    1
  131   122   125    1
  132   125   126    1
  133   127   128    1
  134   127   129    2
  135   127   130    1
  136   130   131    1
  137   130   132    1
  138   130   133    1
  139   133   134    1
  140   133   135    1
  141   133   136    1
  142   136   137    1
  143   136   138    1
  144   136   139    1
  145   139   140    1
  146   139   141    1
  147   139   142    1
@<TRIPOS>SUBSTRUCTURE
       1 MOL1            1 RESIDUE      1      MOL     
       2 MOL1          142 RESIDUE      1      MOL     
@<SCITEGIC>MOL_PROPERTY
VM2 Rank
SciTegic.value.IntegerValue
1

@<SCITEGIC>MOL_PROPERTY
Conf_Id
SciTegic.value.IntegerValue
15037

@<SCITEGIC>MOL_PROPERTY
Probability
SciTegic.value.DoubleValue
2.13

@<SCITEGIC>MOL_PROPERTY
Sum Probability
SciTegic.value.DoubleValue
2.13

@<SCITEGIC>MOL_PROPERTY
Delta G
SciTegic.value.DoubleValue
0.000

@<SCITEGIC>MOL_PROPERTY
G
SciTegic.value.DoubleValue
481.270

@<SCITEGIC>MOL_PROPERTY
E
SciTegic.value.DoubleValue
296.545

@<SCITEGIC>MOL_PROPERTY
-TS
SciTegic.value.DoubleValue
184.725

@<SCITEGIC>MOL_PROPERTY
U+W
SciTegic.value.DoubleValue
171.351

@<SCITEGIC>MOL_PROPERTY
U
SciTegic.value.DoubleValue
234.551

@<SCITEGIC>MOL_PROPERTY
W
SciTegic.value.DoubleValue
-63.200

@<SCITEGIC>MOL_PROPERTY
W(PB)
SciTegic.value.DoubleValue
-69.224

@<SCITEGIC>MOL_PROPERTY
W(SA)
SciTegic.value.DoubleValue
6.023

@<SCITEGIC>MOL_PROPERTY
Valence
SciTegic.value.DoubleValue
150.777

@<SCITEGIC>MOL_PROPERTY
Coulomb
SciTegic.value.DoubleValue
104.704

@<SCITEGIC>MOL_PROPERTY
VdW
SciTegic.value.DoubleValue
-20.930

@<SCITEGIC>MOL_PROPERTY
VdW6
SciTegic.value.DoubleValue
-180.722

@<SCITEGIC>MOL_PROPERTY
VdW12
SciTegic.value.DoubleValue
159.792

@<SCITEGIC>MOL_PROPERTY
Bond
SciTegic.value.DoubleValue
5.052

@<SCITEGIC>MOL_PROPERTY
Angle
SciTegic.value.DoubleValue
12.051

@<SCITEGIC>MOL_PROPERTY
Pdih
SciTegic.value.DoubleValue
133.674

@<SCITEGIC>MOL_PROPERTY
Idih
SciTegic.value.DoubleValue
0.001

@<SCITEGIC>MOL_PROPERTY
Tether
SciTegic.value.DoubleValue
0.000

@<TRIPOS>MOLECULE
CD_guest-s18_vm2_single.mol2 : vm2 host+ligand conformer 2
         142         147           2
SMALL
USER_CHARGES
 
@<TRIPOS>ATOM
       1    C1      16.416208   15.253951   21.934549 C.3        1 MOL1         0.2972
       2    H1      15.385953   15.112463   22.284131 H          1 MOL1         0.0751
       3    O1      16.596758   16.548691   21.322877 O.3        1 MOL1        -0.3740
       4    C2      17.411473   15.110886   23.115007 C.3        1 MOL1         0.1003
       5    H2      17.305075   14.091425   23.507404 H          1 MOL1         0.0783
       6    O2      17.090559   16.042793   24.161168 O.3        1 MOL1        -0.5519
       7    H3      17.921927   16.543139   24.381096 H          1 MOL1         0.3769
       8    C3      18.872535   15.272601   22.621870 C.3        1 MOL1         0.1053
       9    H4      19.011881   16.305573   22.279675 H          1 MOL1         0.0783
      10    O3      19.780412   14.991815   23.694347 O.3        1 MOL1        -0.5519
      11    H5      19.806612   15.821736   24.242022 H          1 MOL1         0.3769
      12    C4      19.169909   14.335821   21.422726 C.3        1 MOL1         0.1018
      13    H6      19.279350   13.308563   21.793738 H          1 MOL1         0.0783
      14    C5      18.056564   14.385344   20.339208 C.3        1 MOL1         0.1043
      15    H7      18.120166   15.352898   19.824606 H          1 MOL1         0.0783
      16    O4      16.752097   14.247008   20.955882 O.3        1 MOL1        -0.3740
      17    C6      18.192212   13.279463   19.268909 C.3        1 MOL1         0.0138
      18    H8      19.126228   13.433273   18.712362 H          1 MOL1         0.0794
      19    H9      17.365670   13.378540   18.552606 H          1 MOL1         0.0794
      20    O5      18.180663   11.978219   19.863193 O.3        1 MOL1        -0.5486
      21    H10     17.342705   11.916521   20.373684 H          1 MOL1         0.3769
      22    C7      14.635136   20.217352   21.091692 C.3        1 MOL1         0.2972
      23    H11     13.917988   21.029374   20.917899 H          1 MOL1         0.0751
      24    O6      15.947445   20.716756   21.414492 O.3        1 MOL1        -0.3740
      25    C8      14.164726   19.319906   22.262260 C.3        1 MOL1         0.1003
      26    H12     13.188554   18.902269   21.983402 H          1 MOL1         0.0783
      27    O7      14.026479   20.075353   23.474241 O.3        1 MOL1        -0.5519
      28    H13     13.872008   19.398161   24.170715 H          1 MOL1         0.3769
      29    C9      15.141711   18.140212   22.487091 C.3        1 MOL1         0.1053
      30    H14     16.090331   18.552793   22.857059 H          1 MOL1         0.0783
      31    O8      14.578934   17.264000   23.470598 O.3        1 MOL1        -0.5519
      32    H15     15.344153   16.767924   23.854666 H          1 MOL1         0.3769
      33    C10     15.426317   17.376252   21.160510 C.3        1 MOL1         0.1018
      34    H16     14.550830   16.772897   20.886368 H          1 MOL1         0.0783
      35    C11     15.750530   18.342052   19.989140 C.3        1 MOL1         0.1043
      36    H17     16.742543   18.783219   20.154351 H          1 MOL1         0.0783
      37    O9      14.739937   19.378119   19.922772 O.3        1 MOL1        -0.3740
      38    C12     15.763339   17.616333   18.627606 C.3        1 MOL1         0.0138
      39    H18     14.775092   17.174560   18.442851 H          1 MOL1         0.0794
      40    H19     16.494755   16.798067   18.661297 H          1 MOL1         0.0794
      41    O10     16.104067   18.533513   17.586039 O.3        1 MOL1        -0.5486
      42    H20     15.479436   19.286351   17.676354 H          1 MOL1         0.3769
      43    C13     18.326418   24.103797   21.428590 C.3        1 MOL1         0.2972
      44    H21     18.718187   25.127857   21.389844 H          1 MOL1         0.0751
      45    O11     19.386414   23.128373   21.505679 O.3        1 MOL1        -0.3740
      46    C14     17.409708   23.940856   22.666932 C.3        1 MOL1         0.1003
      47    H22     16.589631   24.663346   22.564106 H          1 MOL1         0.0783
      48    O12     18.124064   24.208328   23.881851 O.3        1 MOL1        -0.5519
      49    H23     17.514037   23.918032   24.596729 H          1 MOL1         0.3769
      50    C15     16.790883   22.525456   22.719290 C.3        1 MOL1         0.1053
      51    H24     17.597642   21.810090   22.923474 H          1 MOL1         0.0783
      52    O13     15.812120   22.467877   23.764273 O.3        1 MOL1        -0.5519
      53    H25     15.344448   21.601271   23.666878 H          1 MOL1         0.3769
      54    C16     16.130969   22.142956   21.371698 C.3        1 MOL1         0.1018
      55    H26     15.178021   22.681032   21.283140 H          1 MOL1         0.0783
      56    C17     17.032835   22.467006   20.148712 C.3        1 MOL1         0.1043
      57    H27     17.872259   21.759160   20.135856 H          1 MOL1         0.0783
      58    O14     17.535212   23.822106   20.254922 O.3        1 MOL1        -0.3740
      59    C18     16.296983   22.348114   18.796114 C.3        1 MOL1         0.0138
      60    H28     15.976872   21.308740   18.652489 H          1 MOL1         0.0794
      61    H29     17.002047   22.586782   17.988739 H          1 MOL1         0.0794
      62    O15     15.168007   23.225298   18.744049 O.3        1 MOL1        -0.5486
      63    H30     15.514610   24.127019   18.926363 H          1 MOL1         0.3769
      64    C19     23.491224   22.663114   21.056565 C.3        1 MOL1         0.2972
      65    H31     24.559369   22.799548   20.844413 H          1 MOL1         0.0751
      66    O16     23.177261   21.275664   21.289397 O.3        1 MOL1        -0.3740
      67    C20     23.057742   23.514359   22.282539 C.3        1 MOL1         0.1003
      68    H32     23.254457   24.564325   22.031103 H          1 MOL1         0.0783
      69    O17     23.826253   23.168060   23.445676 O.3        1 MOL1        -0.5519
      70    H33     23.570336   22.245064   23.695221 H          1 MOL1         0.3769
      71    C21     21.534102   23.370209   22.542580 C.3        1 MOL1         0.1053
      72    H34     21.342332   22.342703   22.877516 H          1 MOL1         0.0783
      73    O18     21.100256   24.301174   23.542580 O.3        1 MOL1        -0.5519
      74    H35     20.128492   24.160146   23.660562 H          1 MOL1         0.3769
      75    C22     20.716669   23.620224   21.250148 C.3        1 MOL1         0.1018
      76    H36     20.723943   24.696795   21.034578 H          1 MOL1         0.0783
      77    C23     21.281524   22.860026   20.021246 C.3        1 MOL1         0.1043
      78    H37     21.080217   21.788042   20.147673 H          1 MOL1         0.0783
      79    O19     22.708980   23.093521   19.923500 O.3        1 MOL1        -0.3740
      80    C24     20.648363   23.307576   18.685033 C.3        1 MOL1         0.0138
      81    H38     19.569083   23.112404   18.713790 H          1 MOL1         0.0794
      82    H39     21.069674   22.697792   17.874765 H          1 MOL1         0.0794
      83    O20     20.892977   24.695726   18.438676 O.3        1 MOL1        -0.5486
      84    H40     21.867302   24.813810   18.495600 H          1 MOL1         0.3769
      85    C25     24.886904   17.593532   22.035876 C.3        1 MOL1         0.2972
      86    H41     25.524542   16.739979   22.298397 H          1 MOL1         0.0751
      87    O21     23.699283   17.176898   21.329022 O.3        1 MOL1        -0.3740
      88    C26     24.468957   18.371023   23.310482 C.3        1 MOL1         0.1003
      89    H42     25.385169   18.768682   23.765472 H          1 MOL1         0.0783
      90    O22     23.829133   17.492556   24.251354 O.3        1 MOL1        -0.5519
      91    H43     22.928634   17.867088   24.448876 H          1 MOL1         0.3769
      92    C27     23.568262   19.574307   22.932023 C.3        1 MOL1         0.1053
      93    H44     22.630921   19.177169   22.525215 H          1 MOL1         0.0783
      94    O23     23.287824   20.370749   24.089687 O.3        1 MOL1        -0.5519
      95    H45     22.585853   19.868099   24.580561 H          1 MOL1         0.3769
      96    C28     24.227056   20.455212   21.839912 C.3        1 MOL1         0.1018
      97    H46     25.016684   21.058006   22.307490 H          1 MOL1         0.0783
      98    C29     24.822100   19.620765   20.669165 C.3        1 MOL1         0.1043
      99    H47     23.989384   19.232120   20.067855 H          1 MOL1         0.0783
     100    O24     25.604259   18.516162   21.188678 O.3        1 MOL1        -0.3740
     101    C30     25.732906   20.436782   19.724797 C.3        1 MOL1         0.0138
     102    H48     25.129123   21.198660   19.214409 H          1 MOL1         0.0794
     103    H49     26.130055   19.765454   18.951600 H          1 MOL1         0.0794
     104    O25     26.804563   21.055070   20.442921 O.3        1 MOL1        -0.5486
     105    H50     27.290056   20.328152   20.892857 H          1 MOL1         0.3769
     106    C31     21.410601   13.853712   20.508933 C.3        1 MOL1         0.2972
     107    H51     20.978697   12.896500   20.189887 H          1 MOL1         0.0751
     108    O26     20.379540   14.820426   20.805656 O.3        1 MOL1        -0.3740
     109    C32     22.349564   13.662620   21.730771 C.3        1 MOL1         0.1003
     110    H52     23.178549   13.024172   21.399624 H          1 MOL1         0.0783
     111    O27     21.671862   13.003733   22.811466 O.3        1 MOL1        -0.5519
     112    H53     21.061577   13.674238   23.208123 H          1 MOL1         0.3769
     113    C33     22.953197   15.022171   22.174706 C.3        1 MOL1         0.1053
     114    H54     22.138527   15.642160   22.574159 H          1 MOL1         0.0783
     115    O28     23.942508   14.807786   23.188548 O.3        1 MOL1        -0.5519
     116    H55     23.983114   15.648197   23.707209 H          1 MOL1         0.3769
     117    C34     23.593715   15.782690   20.977571 C.3        1 MOL1         0.1018
     118    H56     24.578520   15.352409   20.752553 H          1 MOL1         0.0783
     119    C35     22.723697   15.742548   19.690755 C.3        1 MOL1         0.1043
     120    H57     21.882160   16.434398   19.824332 H          1 MOL1         0.0783
     121    O29     22.222097   14.403450   19.451779 O.3        1 MOL1        -0.3740
     122    C36     23.497234   16.188002   18.430117 C.3        1 MOL1         0.0138
     123    H58     23.874097   17.208088   18.582719 H          1 MOL1         0.0794
     124    H59     22.800590   16.217218   17.581724 H          1 MOL1         0.0794
     125    O30     24.581763   15.297552   18.150554 O.3        1 MOL1        -0.5486
     126    H60     24.189843   14.396448   18.114014 H          1 MOL1         0.3769
     127    C1      20.120766   18.481112   24.393872 C.2        1 MOL1         0.6075
     128    O1      21.285124   18.546849   24.740172 O.co2      1 MOL1        -0.6830
     129    O2      19.385967   17.555631   24.683312 O.co2      1 MOL1        -0.6830
     130    C2      19.550608   19.633457   23.569484 C.3        1 MOL1        -0.2050
     131    H1      20.306253   20.423273   23.503078 H          1 MOL1         0.0710
     132    H2      18.710490   20.046615   24.138935 H          1 MOL1         0.0710
     133    C3      19.064969   19.245734   22.147884 C.3        1 MOL1        -0.1947
     134    H3      18.318890   18.447010   22.226085 H          1 MOL1         0.0712
     135    H4      18.555062   20.107112   21.703207 H          1 MOL1         0.0712
     136    C4      20.204792   18.810406   21.204002 C.3        1 MOL1        -0.1921
     137    H5      20.733268   17.944119   21.625636 H          1 MOL1         0.0712
     138    H6      20.935412   19.623673   21.115002 H          1 MOL1         0.0712
     139    C5      19.669359   18.456950   19.802476 C.3        1 MOL1        -0.2936
     140    H7      20.492402   18.193656   19.127164 H          1 MOL1         0.0724
     141    H8      19.129492   19.305151   19.362214 H          1 MOL1         0.0724
     142    H9      18.983349   17.602318   19.852760 H          1 MOL1         0.0724
@<TRIPOS>BOND
    1     1     2    1
    2     1     3    1
    3     1     4    1
    4     4     5    1
    5     4     6    1
    6     6     7    1
    7     4     8    1
    8     8     9    1
    9     8    10    1
   10    10    11    1
   11     8    12    1
   12    12    13    1
   13    12    14    1
   14    14    15    1
   15     1    16    1
   16    14    16    1
   17    14    17    1
   18    17    18    1
   19    17    19    1
   20    17    20    1
   21    20    21    1
   22    22    23    1
   23    22    24    1
   24    22    25    1
   25    25    26    1
   26    25    27    1
   27    27    28    1
   28    25    29    1
   29    29    30    1
   30    29    31    1
   31    31    32    1
   32     3    33    1
   33    29    33    1
   34    33    34    1
   35    33    35    1
   36    35    36    1
   37    22    37    1
   38    35    37    1
   39    35    38    1
   40    38    39    1
   41    38    40    1
   42    38    41    1
   43    41    42    1
   44    43    44    1
   45    43    45    1
   46    43    46    1
   47    46    47    1
   48    46    48    1
   49    48    49    1
   50    46    50    1
   51    50    51    1
   52    50    52    1
   53    52    53    1
   54    24    54    1
   55    50    54    1
   56    54    55    1
   57    54    56    1
   58    56    57    1
   59    43    58    1
   60    56    58    1
   61    56    59    1
   62    59    60    1
   63    59    61    1
   64    59    62    1
   65    62    63    1
   66    64    65    1
   67    64    66    1
   68    64    67    1
   69    67    68    1
   70    67    69    1
   71    69    70    1
   72    67    71    1
   73    71    72    1
   74    71    73    1
   75    73    74    1
   76    45    75    1
   77    71    75    1
   78    75    76    1
   79    75    77    1
   80    77    78    1
   81    64    79    1
   82    77    79    1
   83    77    80    1
   84    80    81    1
   85    80    82    1
   86    80    83    1
   87    83    84    1
   88    85    86    1
   89    85    87    1
   90    85    88    1
   91    88    89    1
   92    88    90    1
   93    90    91    1
   94    88    92    1
   95    92    93    1
   96    92    94    1
   97    94    95    1
   98    66    96    1
   99    92    96    1
  100    96    97    1
  101    96    98    1
  102    98    99    1
  103    85   100    1
  104    98   100    1
  105    98   101    1
  106   101   102    1
  107   101   103    1
  108   101   104    1
  109   104   105    1
  110   106   107    1
  111    12   108    1
  112   106   108    1
  113   106   109    1
  114   109   110    1
  115   109   111    1
  116   111   112    1
  117   109   113    1
  118   113   114    1
  119   113   115    1
  120   115   116    1
  121    87   117    1
  122   113   117    1
  123   117   118    1
  124   117   119    1
  125   119   120    1
  126   106   121    1
  127   119   121    1
  128   119   122    1
  129   122   123    1
  130   122   124    1
  131   122   125    1
  132   125   126    1
  133   127   128    1
  134   127   129    2
  135   127   130    1
  136   130   131    1
  137   130   132    1
  138   130   133    1
  139   133   134    1
  140   133   135    1
  141   133   136    1
  142   136   137    1
  143   136   138    1
  144   136   139    1
  145   139   140    1
  146   139   141    1
  147   139   142    1
@<TRIPOS>SUBSTRUCTURE
       1 MOL1            1 RESIDUE      1      MOL     
       2 MOL1          142 RESIDUE      1      MOL     
@<SCITEGIC>MOL_PROPERTY
VM2 Rank
SciTegic.value.IntegerValue
2

@<SCITEGIC>MOL_PROPERTY
Conf_Id
SciTegic.value.IntegerValue
6641

@<SCITEGIC>MOL_PROPERTY
Probability
SciTegic.value.DoubleValue
1.77

@<SCITEGIC>MOL_PROPERTY
Sum Probability
SciTegic.value.DoubleValue
3.90

@<SCITEGIC>MOL_PROPERTY
Delta G
SciTegic.value.DoubleValue
0.112

@<SCITEGIC>MOL_PROPERTY
G
SciTegic.value.DoubleValue
481.382

@<SCITEGIC>MOL_PROPERTY
E
SciTegic.value.DoubleValue
296.473

@<SCITEGIC>MOL_PROPERTY
-TS
SciTegic.value.DoubleValue
184.909

@<SCITEGIC>MOL_PROPERTY
U+W
SciTegic.value.DoubleValue
171.279

@<SCITEGIC>MOL_PROPERTY
U
SciTegic.value.DoubleValue
234.021

@<SCITEGIC>MOL_PROPERTY
W
SciTegic.value.DoubleValue
-62.742

@<SCITEGIC>MOL_PROPERTY
W(PB)
SciTegic.value.DoubleValue
-68.783

@<SCITEGIC>MOL_PROPERTY
W(SA)
SciTegic.value.DoubleValue
6.041

@<SCITEGIC>MOL_PROPERTY
Valence
SciTegic.value.DoubleValue
150.556

@<SCITEGIC>MOL_PROPERTY
Coulomb
SciTegic.value.DoubleValue
104.128

@<SCITEGIC>MOL_PROPERTY
VdW
SciTegic.value.DoubleValue
-20.664

@<SCITEGIC>MOL_PROPERTY
VdW6
SciTegic.value.DoubleValue
-181.085

@<SCITEGIC>MOL_PROPERTY
VdW12
SciTegic.value.DoubleValue
160.421

@<SCITEGIC>MOL_PROPERTY
Bond
SciTegic.value.DoubleValue
5.079

@<SCITEGIC>MOL_PROPERTY
Angle
SciTegic.value.DoubleValue
12.122

@<SCITEGIC>MOL_PROPERTY
Pdih
SciTegic.value.DoubleValue
133.355

@<SCITEGIC>MOL_PROPERTY
Idih
SciTegic.value.DoubleValue
0.001

@<SCITEGIC>MOL_PROPERTY
Tether
SciTegic.value.DoubleValue
0.000

@<TRIPOS>MOLECULE
CD_guest-s18_vm2_single.mol2 : vm2 host+ligand conformer 3
         142         147           2
SMALL
USER_CHARGES
 
@<TRIPOS>ATOM
       1    C1      16.457137   15.271830   21.861138 C.3        1 MOL1         0.2972
       2    H1      15.416076   15.142582   22.182029 H          1 MOL1         0.0751
       3    O1      16.667870   16.559920   21.244839 O.3        1 MOL1        -0.3740
       4    C2      17.416739   15.134960   23.070976 C.3        1 MOL1         0.1003
       5    H2      17.291808   14.120974   23.471965 H          1 MOL1         0.0783
       6    O2      17.072589   16.082313   24.096095 O.3        1 MOL1        -0.5519
       7    H3      17.899727   16.584025   24.328580 H          1 MOL1         0.3769
       8    C3      18.892160   15.281366   22.616346 C.3        1 MOL1         0.1053
       9    H4      19.047377   16.309943   22.267576 H          1 MOL1         0.0783
      10    O3      19.768537   15.006867   23.716236 O.3        1 MOL1        -0.5519
      11    H5      19.785638   15.843231   24.254401 H          1 MOL1         0.3769
      12    C4      19.217323   14.330700   21.435018 C.3        1 MOL1         0.1018
      13    H6      19.314406   13.307117   21.819392 H          1 MOL1         0.0783
      14    C5      18.133101   14.372303   20.322034 C.3        1 MOL1         0.1043
      15    H7      18.214972   15.332668   19.796981 H          1 MOL1         0.0783
      16    O4      16.812890   14.249361   20.906050 O.3        1 MOL1        -0.3740
      17    C6      18.289806   13.252344   19.269506 C.3        1 MOL1         0.0138
      18    H8      19.238204   13.394641   18.734722 H          1 MOL1         0.0794
      19    H9      17.481762   13.346690   18.531680 H          1 MOL1         0.0794
      20    O5      18.256686   11.958714   19.879467 O.3        1 MOL1        -0.5486
      21    H10     17.405443   11.907508   20.368697 H          1 MOL1         0.3769
      22    C7      14.730201   20.238574   20.920406 C.3        1 MOL1         0.2972
      23    H11     14.022178   21.050151   20.710297 H          1 MOL1         0.0751
      24    O6      16.023291   20.740998   21.307929 O.3        1 MOL1        -0.3740
      25    C8      14.202370   19.337288   22.064320 C.3        1 MOL1         0.1003
      26    H12     13.242811   18.917403   21.735630 H          1 MOL1         0.0783
      27    O7      14.001212   20.089581   23.269290 O.3        1 MOL1        -0.5519
      28    H13     13.813039   19.409798   23.955057 H          1 MOL1         0.3769
      29    C9      15.169772   18.159959   22.337542 C.3        1 MOL1         0.1053
      30    H14     16.103483   18.576273   22.740073 H          1 MOL1         0.0783
      31    O8      14.572308   17.291234   23.307453 O.3        1 MOL1        -0.5519
      32    H15     15.324054   16.799890   23.722899 H          1 MOL1         0.3769
      33    C10     15.506362   17.388313   21.028204 C.3        1 MOL1         0.1018
      34    H16     14.642480   16.784874   20.719906 H          1 MOL1         0.0783
      35    C11     15.886505   18.353636   19.872240 C.3        1 MOL1         0.1043
      36    H17     16.868969   18.790248   20.094301 H          1 MOL1         0.0783
      37    O9      14.898523   19.406874   19.753600 O.3        1 MOL1        -0.3740
      38    C12     15.983408   17.646912   18.502054 C.3        1 MOL1         0.0138
      39    H18     16.738333   16.851769   18.560290 H          1 MOL1         0.0794
      40    H19     16.328403   18.373929   17.754915 H          1 MOL1         0.0794
      41    O10     14.718991   17.100627   18.115134 O.3        1 MOL1        -0.5486
      42    H20     14.074673   17.840753   18.176344 H          1 MOL1         0.3769
      43    C13     18.379091   24.124131   21.494601 C.3        1 MOL1         0.2972
      44    H21     18.783312   25.143980   21.512463 H          1 MOL1         0.0751
      45    O11     19.427451   23.133030   21.501712 O.3        1 MOL1        -0.3740
      46    C14     17.469464   23.899890   22.727861 C.3        1 MOL1         0.1003
      47    H22     16.650444   24.628349   22.667328 H          1 MOL1         0.0783
      48    O12     18.190723   24.102417   23.951050 O.3        1 MOL1        -0.5519
      49    H23     17.585420   23.772281   24.652562 H          1 MOL1         0.3769
      50    C15     16.848240   22.485191   22.708637 C.3        1 MOL1         0.1053
      51    H24     17.655106   21.760340   22.870832 H          1 MOL1         0.0783
      52    O13     15.875767   22.374367   23.755008 O.3        1 MOL1        -0.5519
      53    H25     15.384562   21.530263   23.596844 H          1 MOL1         0.3769
      54    C16     16.180134   22.170963   21.347272 C.3        1 MOL1         0.1018
      55    H26     15.216151   22.694809   21.303004 H          1 MOL1         0.0783
      56    C17     17.058924   22.577589   20.131498 C.3        1 MOL1         0.1043
      57    H27     17.894291   21.868762   20.055004 H          1 MOL1         0.0783
      58    O14     17.572462   23.920548   20.315484 O.3        1 MOL1        -0.3740
      59    C18     16.294501   22.552051   18.789346 C.3        1 MOL1         0.0138
      60    H28     15.964049   21.526088   18.581916 H          1 MOL1         0.0794
      61    H29     16.984189   22.841777   17.985369 H          1 MOL1         0.0794
      62    O15     15.170506   23.436696   18.820382 O.3        1 MOL1        -0.5486
      63    H30     15.527067   24.322657   19.054018 H          1 MOL1         0.3769
      64    C19     23.534391   22.657395   21.084862 C.3        1 MOL1         0.2972
      65    H31     24.603797   22.790193   20.876862 H          1 MOL1         0.0751
      66    O16     23.217387   21.272662   21.329341 O.3        1 MOL1        -0.3740
      67    C20     23.096204   23.521258   22.300461 C.3        1 MOL1         0.1003
      68    H32     23.299378   24.568113   22.041322 H          1 MOL1         0.0783
      69    O17     23.855327   23.180941   23.471605 O.3        1 MOL1        -0.5519
      70    H33     23.593301   22.261160   23.726679 H          1 MOL1         0.3769
      71    C21     21.570409   23.386520   22.553294 C.3        1 MOL1         0.1053
      72    H34     21.373910   22.363963   22.900017 H          1 MOL1         0.0783
      73    O18     21.136029   24.330292   23.540841 O.3        1 MOL1        -0.5519
      74    H35     20.172334   24.164087   23.688732 H          1 MOL1         0.3769
      75    C22     20.759936   23.622327   21.253254 C.3        1 MOL1         0.1018
      76    H36     20.767919   24.695555   21.021425 H          1 MOL1         0.0783
      77    C23     21.330441   22.846702   20.037240 C.3        1 MOL1         0.1043
      78    H37     21.126934   21.776580   20.175580 H          1 MOL1         0.0783
      79    O19     22.758568   23.077566   19.943623 O.3        1 MOL1        -0.3740
      80    C24     20.702346   23.279726   18.693840 C.3        1 MOL1         0.0138
      81    H38     19.620678   23.098107   18.726383 H          1 MOL1         0.0794
      82    H39     21.116624   22.652251   17.893504 H          1 MOL1         0.0794
      83    O20     20.962496   24.660879   18.425390 O.3        1 MOL1        -0.5486
      84    H40     21.937569   24.770022   18.487811 H          1 MOL1         0.3769
      85    C25     24.928070   17.597280   22.124804 C.3        1 MOL1         0.2972
      86    H41     25.566289   16.749116   22.402991 H          1 MOL1         0.0751
      87    O21     23.749520   17.168744   21.410978 O.3        1 MOL1        -0.3740
      88    C26     24.495241   18.387497   23.386536 C.3        1 MOL1         0.1003
      89    H42     25.405685   18.793474   23.845735 H          1 MOL1         0.0783
      90    O22     23.849429   17.517532   24.331054 O.3        1 MOL1        -0.5519
      91    H43     22.937059   17.878664   24.497021 H          1 MOL1         0.3769
      92    C27     23.593654   19.582808   22.986136 C.3        1 MOL1         0.1053
      93    H44     22.663499   19.177654   22.570610 H          1 MOL1         0.0783
      94    O23     23.293885   20.387594   24.133144 O.3        1 MOL1        -0.5519
      95    H45     22.587151   19.885146   24.617015 H          1 MOL1         0.3769
      96    C28     24.262328   20.455607   21.894017 C.3        1 MOL1         0.1018
      97    H46     25.048544   21.061202   22.363692 H          1 MOL1         0.0783
      98    C29     24.866186   19.610386   20.735387 C.3        1 MOL1         0.1043
      99    H47     24.037536   19.214410   20.132901 H          1 MOL1         0.0783
     100    O24     25.647882   18.512133   21.270936 O.3        1 MOL1        -0.3740
     101    C30     25.780996   20.418890   19.788439 C.3        1 MOL1         0.0138
     102    H48     25.178804   21.174742   19.267304 H          1 MOL1         0.0794
     103    H49     26.183749   19.741167   19.023838 H          1 MOL1         0.0794
     104    O25     26.847386   21.045869   20.506848 O.3        1 MOL1        -0.5486
     105    H50     27.331219   20.324405   20.967199 H          1 MOL1         0.3769
     106    C31     21.480887   13.835324   20.583671 C.3        1 MOL1         0.2972
     107    H51     21.057143   12.874299   20.265145 H          1 MOL1         0.0751
     108    O26     20.443449   14.805736   20.843882 O.3        1 MOL1        -0.3740
     109    C32     22.389318   13.659859   21.830256 C.3        1 MOL1         0.1003
     110    H52     23.224776   13.015706   21.527672 H          1 MOL1         0.0783
     111    O27     21.685702   13.016453   22.903576 O.3        1 MOL1        -0.5519
     112    H53     21.063049   13.690867   23.273469 H          1 MOL1         0.3769
     113    C33     22.984774   15.024889   22.268775 C.3        1 MOL1         0.1053
     114    H54     22.163727   15.649094   22.648372 H          1 MOL1         0.0783
     115    O28     23.959086   14.821467   23.299097 O.3        1 MOL1        -0.5519
     116    H55     23.995842   15.668439   23.807284 H          1 MOL1         0.3769
     117    C34     23.645980   15.771624   21.074063 C.3        1 MOL1         0.1018
     118    H56     24.632572   15.335822   20.867647 H          1 MOL1         0.0783
     119    C35     22.801496   15.721072   19.772406 C.3        1 MOL1         0.1043
     120    H57     21.957753   16.415726   19.873983 H          1 MOL1         0.0783
     121    O29     22.320987   14.372994   19.542217 O.3        1 MOL1        -0.3740
     122    C36     23.625409   16.141543   18.537659 C.3        1 MOL1         0.0138
     123    H58     24.439830   15.421125   18.383537 H          1 MOL1         0.0794
     124    H59     24.078608   17.124681   18.722308 H          1 MOL1         0.0794
     125    O30     22.783758   16.200883   17.384640 O.3        1 MOL1        -0.5486
     126    H60     22.280641   15.356055   17.373026 H          1 MOL1         0.3769
     127    C1      20.125804   18.494921   24.366876 C.2        1 MOL1         0.6075
     128    O1      21.282733   18.546514   24.739632 O.co2      1 MOL1        -0.6830
     129    O2      19.367850   17.587544   24.654073 O.co2      1 MOL1        -0.6830
     130    C2      19.593484   19.646466   23.516727 C.3        1 MOL1        -0.2050
     131    H1      20.364490   20.421493   23.455479 H          1 MOL1         0.0710
     132    H2      18.751067   20.080863   24.066286 H          1 MOL1         0.0710
     133    C3      19.127544   19.250865   22.090343 C.3        1 MOL1        -0.1947
     134    H3      18.366747   18.465546   22.164417 H          1 MOL1         0.0712
     135    H4      18.640958   20.115652   21.625336 H          1 MOL1         0.0712
     136    C4      20.277478   18.785418   21.173222 C.3        1 MOL1        -0.1921
     137    H5      20.784800   17.916818   21.615511 H          1 MOL1         0.0712
     138    H6      21.022750   19.585521   21.087144 H          1 MOL1         0.0712
     139    C5      19.763111   18.422549   19.766212 C.3        1 MOL1        -0.2936
     140    H7      20.595626   18.141114   19.109232 H          1 MOL1         0.0724
     141    H8      19.243609   19.273088   19.306969 H          1 MOL1         0.0724
     142    H9      19.067430   17.575959   19.814687 H          1 MOL1         0.0724
@<TRIPOS>BOND
    1     1     2    1
    2     1     3    1
    3     1     4    1
    4     4     5    1
    5     4     6    1
    6     6     7    1
    7     4     8    1
    8     8     9    1
    9     8    10    1
   10    10    11    1
   11     8    12    1
   12    12    13    1
   13    12    14    1
   14    14    15    1
   15     1    16    1
   16    14    16    1
   17    14    17    1
   18    17    18    1
   19    17    19    1
   20    17    20    1
   21    20    21    1
   22    22    23    1
   23    22    24    1
   24    22    25    1
   25    25    26    1
   26    25    27    1
   27    27    28    1
   28    25    29    1
   29    29    30    1
   30    29    31    1
   31    31    32    1
   32     3    33    1
   33    29    33    1
   34    33    34    1
   35    33    35    1
   36    35    36    1
   37    22    37    1
   38    35    37    1
   39    35    38    1
   40    38    39    1
   41    38    40    1
   42    38    41    1
   43    41    42    1
   44    43    44    1
   45    43    45    1
   46    43    46    1
   47    46    47    1
   48    46    48    1
   49    48    49    1
   50    46    50    1
   51    50    51    1
   52    50    52    1
   53    52    53    1
   54    24    54    1
   55    50    54    1
   56    54    55    1
   57    54    56    1
   58    56    57    1
   59    43    58    1
   60    56    58    1
   61    56    59    1
   62    59    60    1
   63    59    61    1
   64    59    62    1
   65    62    63    1
   66    64    65    1
   67    64    66    1
   68    64    67    1
   69    67    68    1
   70    67    69    1
   71    69    70    1
   72    67    71    1
   73    71    72    1
   74    71    73    1
   75    73    74    1
   76    45    75    1
   77    71    75    1
   78    75    76    1
   79    75    77    1
   80    77    78    1
   81    64    79    1
   82    77    79    1
   83    77    80    1
   84    80    81    1
   85    80    82    1
   86    80    83    1
   87    83    84    1
   88    85    86    1
   89    85    87    1
   90    85    88    1
   91    88    89    1
   92    88    90    1
   93    90    91    1
   94    88    92    1
   95    92    93    1
   96    92    94    1
   97    94    95    1
   98    66    96    1
   99    92    96    1
  100    96    97    1
  101    96    98    1
  102    98    99    1
  103    85   100    1
  104    98   100    1
  105    98   101    1
  106   101   102    1
  107   101   103    1
  108   101   104    1
  109   104   105    1
  110   106   107    1
  111    12   108    1
  112   106   108    1
  113   106   109    1
  114   109   110    1
  115   109   111    1
  116   111   112    1
  117   109   113    1
  118   113   114    1
  119   113   115    1
  120   115   116    1
  121    87   117    1
  122   113   117    1
  123   117   118    1
  124   117   119    1
  125   119   120    1
  126   106   121    1
  127   119   121    1
  128   119   122    1
  129   122   123    1
  130   122   124    1
  131   122   125    1
  132   125   126    1
  133   127   128    1
  134   127   129    2
  135   127   130    1
  136   130   131    1
  137   130   132    1
  138   130   133    1
  139   133   134    1
  140   133   135    1
  141   133   136    1
  142   136   137    1
  143   136   138    1
  144   136   139    1
  145   139   140    1
  146   139   141    1
  147   139   142    1
@<TRIPOS>SUBSTRUCTURE
       1 MOL1            1 RESIDUE      1      MOL     
       2 MOL1          142 RESIDUE      1      MOL     
@<SCITEGIC>MOL_PROPERTY
VM2 Rank
SciTegic.value.IntegerValue
3

@<SCITEGIC>MOL_PROPERTY
Conf_Id
SciTegic.value.IntegerValue
16307

@<SCITEGIC>MOL_PROPERTY
Probability
SciTegic.value.DoubleValue
1.45

@<SCITEGIC>MOL_PROPERTY
Sum Probability
SciTegic.value.DoubleValue
5.35

@<SCITEGIC>MOL_PROPERTY
Delta G
SciTegic.value.DoubleValue
0.229

@<SCITEGIC>MOL_PROPERTY
G
SciTegic.value.DoubleValue
481.500

@<SCITEGIC>MOL_PROPERTY
E
SciTegic.value.DoubleValue
296.424

@<SCITEGIC>MOL_PROPERTY
-TS
SciTegic.value.DoubleValue
185.076

@<SCITEGIC>MOL_PROPERTY
U+W
SciTegic.value.DoubleValue
171.230

@<SCITEGIC>MOL_PROPERTY
U
SciTegic.value.DoubleValue
233.773

@<SCITEGIC>MOL_PROPERTY
W
SciTegic.value.DoubleValue
-62.543

@<SCITEGIC>MOL_PROPERTY
W(PB)
SciTegic.value.DoubleValue
-68.561

@<SCITEGIC>MOL_PROPERTY
W(SA)
SciTegic.value.DoubleValue
6.019

@<SCITEGIC>MOL_PROPERTY
Valence
SciTegic.value.DoubleValue
150.654

@<SCITEGIC>MOL_PROPERTY
Coulomb
SciTegic.value.DoubleValue
103.709

@<SCITEGIC>MOL_PROPERTY
VdW
SciTegic.value.DoubleValue
-20.590

@<SCITEGIC>MOL_PROPERTY
VdW6
SciTegic.value.DoubleValue
-181.015

@<SCITEGIC>MOL_PROPERTY
VdW12
SciTegic.value.DoubleValue
160.425

@<SCITEGIC>MOL_PROPERTY
Bond
SciTegic.value.DoubleValue
5.084

@<SCITEGIC>MOL_PROPERTY
Angle
SciTegic.value.DoubleValue
12.219

@<SCITEGIC>MOL_PROPERTY
Pdih
SciTegic.value.DoubleValue
133.350

@<SCITEGIC>MOL_PROPERTY
Idih
SciTegic.value.DoubleValue
0.001

@<SCITEGIC>MOL_PROPERTY
Tether
SciTegic.value.DoubleValue
0.000

@<TRIPOS>MOLECULE
CD_guest-s18_vm2_single.mol2 : vm2 host+ligand conformer 4
         142         147           2
SMALL
USER_CHARGES
 
@<TRIPOS>ATOM
       1    C1      16.424395   15.283743   21.891750 C.3        1 MOL1         0.2972
       2    H1      15.391948   15.140589   22.233996 H          1 MOL1         0.0751
       3    O1      16.608559   16.581335   21.286926 O.3        1 MOL1        -0.3740
       4    C2      17.411913   15.135809   23.078221 C.3        1 MOL1         0.1003
       5    H2      17.301491   14.115410   23.467041 H          1 MOL1         0.0783
       6    O2      17.085978   16.065508   24.124945 O.3        1 MOL1        -0.5519
       7    H3      17.917391   16.562023   24.353282 H          1 MOL1         0.3769
       8    C3      18.876401   15.296886   22.595354 C.3        1 MOL1         0.1053
       9    H4      19.019296   16.331251   22.259052 H          1 MOL1         0.0783
      10    O3      19.776731   15.009329   23.672409 O.3        1 MOL1        -0.5519
      11    H5      19.801489   15.836742   24.223946 H          1 MOL1         0.3769
      12    C4      19.180884   14.365382   21.393930 C.3        1 MOL1         0.1018
      13    H6      19.287936   13.336431   21.760956 H          1 MOL1         0.0783
      14    C5      18.074533   14.420325   20.303576 C.3        1 MOL1         0.1043
      15    H7      18.142025   15.389859   19.793331 H          1 MOL1         0.0783
      16    O4      16.766095   14.280572   20.911226 O.3        1 MOL1        -0.3740
      17    C6      18.216245   13.318712   19.229671 C.3        1 MOL1         0.0138
      18    H8      19.154121   13.473862   18.680028 H          1 MOL1         0.0794
      19    H9      17.394609   13.421570   18.508277 H          1 MOL1         0.0794
      20    O5      18.199419   12.015052   19.818520 O.3        1 MOL1        -0.5486
      21    H10     17.358164   11.952289   20.323428 H          1 MOL1         0.3769
      22    C7      14.639619   20.249539   21.071214 C.3        1 MOL1         0.2972
      23    H11     13.922569   21.061269   20.895376 H          1 MOL1         0.0751
      24    O6      15.946422   20.749695   21.414387 O.3        1 MOL1        -0.3740
      25    C8      14.157250   19.336653   22.225201 C.3        1 MOL1         0.1003
      26    H12     13.187853   18.916422   21.927237 H          1 MOL1         0.0783
      27    O7      13.996184   20.076024   23.443947 O.3        1 MOL1        -0.5519
      28    H13     13.832922   19.389159   24.128969 H          1 MOL1         0.3769
      29    C9      15.137892   18.160164   22.450662 C.3        1 MOL1         0.1053
      30    H14     16.080930   18.574074   22.833333 H          1 MOL1         0.0783
      31    O8      14.569671   17.273296   23.421462 O.3        1 MOL1        -0.5519
      32    H15     15.334032   16.779916   23.810723 H          1 MOL1         0.3769
      33    C10     15.438898   17.409501   21.120182 C.3        1 MOL1         0.1018
      34    H16     14.567427   16.807638   20.830429 H          1 MOL1         0.0783
      35    C11     15.774065   18.388137   19.962347 C.3        1 MOL1         0.1043
      36    H17     16.763293   18.829595   20.142864 H          1 MOL1         0.0783
      37    O9      14.762426   19.423435   19.894610 O.3        1 MOL1        -0.3740
      38    C12     15.802590   17.675926   18.593933 C.3        1 MOL1         0.0138
      39    H18     14.817013   17.234623   18.394420 H          1 MOL1         0.0794
      40    H19     16.534973   16.858494   18.627023 H          1 MOL1         0.0794
      41    O10     16.152482   18.604065   17.565355 O.3        1 MOL1        -0.5486
      42    H20     15.535790   19.362030   17.666708 H          1 MOL1         0.3769
      43    C13     18.308729   24.135675   21.560381 C.3        1 MOL1         0.2972
      44    H21     18.708221   25.157461   21.569814 H          1 MOL1         0.0751
      45    O11     19.361651   23.150138   21.566605 O.3        1 MOL1        -0.3740
      46    C14     17.409348   23.916148   22.801728 C.3        1 MOL1         0.1003
      47    H22     16.589442   24.643898   22.744654 H          1 MOL1         0.0783
      48    O12     18.142002   24.125789   24.016978 O.3        1 MOL1        -0.5519
      49    H23     17.542912   23.800985   24.726242 H          1 MOL1         0.3769
      50    C15     16.788571   22.501210   22.795837 C.3        1 MOL1         0.1053
      51    H24     17.596334   21.776969   22.958388 H          1 MOL1         0.0783
      52    O13     15.822845   22.399103   23.849220 O.3        1 MOL1        -0.5519
      53    H25     15.340939   21.546096   23.710578 H          1 MOL1         0.3769
      54    C16     16.112662   22.178676   21.440105 C.3        1 MOL1         0.1018
      55    H26     15.152252   22.708696   21.392783 H          1 MOL1         0.0783
      56    C17     16.991348   22.569779   20.219119 C.3        1 MOL1         0.1043
      57    H27     17.829050   21.862383   20.153037 H          1 MOL1         0.0783
      58    O14     17.499091   23.918261   20.385710 O.3        1 MOL1        -0.3740
      59    C18     16.229877   22.519087   18.876429 C.3        1 MOL1         0.0138
      60    H28     15.905136   21.488125   18.687337 H          1 MOL1         0.0794
      61    H29     16.920025   22.796850   18.068562 H          1 MOL1         0.0794
      62    O15     15.101397   23.398420   18.890238 O.3        1 MOL1        -0.5486
      63    H30     15.451912   24.289779   19.111688 H          1 MOL1         0.3769
      64    C19     23.463544   22.695705   21.076352 C.3        1 MOL1         0.2972
      65    H31     24.527806   22.838417   20.849461 H          1 MOL1         0.0751
      66    O16     23.160623   21.307015   21.315305 O.3        1 MOL1        -0.3740
      67    C20     23.040897   23.546012   22.306679 C.3        1 MOL1         0.1003
      68    H32     23.236258   24.596002   22.054346 H          1 MOL1         0.0783
      69    O17     23.818195   23.198244   23.463576 O.3        1 MOL1        -0.5519
      70    H33     23.566578   22.273706   23.711908 H          1 MOL1         0.3769
      71    C21     21.519573   23.402726   22.580393 C.3        1 MOL1         0.1053
      72    H34     21.333143   22.378553   22.928291 H          1 MOL1         0.0783
      73    O18     21.093538   24.343538   23.574389 O.3        1 MOL1        -0.5519
      74    H35     20.132174   24.174027   23.733370 H          1 MOL1         0.3769
      75    C22     20.689190   23.636655   21.292544 C.3        1 MOL1         0.1018
      76    H36     20.694689   24.709221   21.056915 H          1 MOL1         0.0783
      77    C23     21.239518   22.861333   20.068293 C.3        1 MOL1         0.1043
      78    H37     21.044970   21.788993   20.203161 H          1 MOL1         0.0783
      79    O19     22.661459   23.120154   19.954496 O.3        1 MOL1        -0.3740
      80    C24     20.584089   23.314468   18.746937 C.3        1 MOL1         0.0138
      81    H38     20.800875   24.378117   18.580827 H          1 MOL1         0.0794
      82    H39     19.495538   23.202850   18.822345 H          1 MOL1         0.0794
      83    O20     21.077442   22.527443   17.661631 O.3        1 MOL1        -0.5486
      84    H40     22.056541   22.526889   17.751781 H          1 MOL1         0.3769
      85    C25     24.892176   17.631514   22.040543 C.3        1 MOL1         0.2972
      86    H41     25.534896   16.780151   22.297804 H          1 MOL1         0.0751
      87    O21     23.703720   17.211426   21.337433 O.3        1 MOL1        -0.3740
      88    C26     24.475854   18.402822   23.319402 C.3        1 MOL1         0.1003
      89    H42     25.392090   18.802781   23.772308 H          1 MOL1         0.0783
      90    O22     23.843021   17.518480   24.259531 O.3        1 MOL1        -0.5519
      91    H43     22.937468   17.883007   24.452889 H          1 MOL1         0.3769
      92    C27     23.568401   19.603300   22.948525 C.3        1 MOL1         0.1053
      93    H44     22.631719   19.202771   22.543421 H          1 MOL1         0.0783
      94    O23     23.287159   20.394066   24.109979 O.3        1 MOL1        -0.5519
      95    H45     22.588443   19.885991   24.599733 H          1 MOL1         0.3769
      96    C28     24.218294   20.491129   21.856775 C.3        1 MOL1         0.1018
      97    H46     25.007014   21.096669   22.322237 H          1 MOL1         0.0783
      98    C29     24.810975   19.662789   20.680462 C.3        1 MOL1         0.1043
      99    H47     23.976731   19.271996   20.082589 H          1 MOL1         0.0783
     100    O24     25.601083   18.560408   21.192974 O.3        1 MOL1        -0.3740
     101    C30     25.712856   20.485216   19.733153 C.3        1 MOL1         0.0138
     102    H48     25.102500   21.244361   19.226652 H          1 MOL1         0.0794
     103    H49     26.110080   19.817209   18.957122 H          1 MOL1         0.0794
     104    O25     26.784405   21.108450   20.447116 O.3        1 MOL1        -0.5486
     105    H50     27.276193   20.383624   20.893549 H          1 MOL1         0.3769
     106    C31     21.427814   13.887823   20.492063 C.3        1 MOL1         0.2972
     107    H51     20.998437   12.931347   20.167454 H          1 MOL1         0.0751
     108    O26     20.394436   14.852639   20.786802 O.3        1 MOL1        -0.3740
     109    C32     22.360709   13.693472   21.718036 C.3        1 MOL1         0.1003
     110    H52     23.192173   13.057223   21.388887 H          1 MOL1         0.0783
     111    O27     21.678070   13.029808   22.792671 O.3        1 MOL1        -0.5519
     112    H53     21.063639   13.697571   23.187545 H          1 MOL1         0.3769
     113    C33     22.960439   15.052153   22.170046 C.3        1 MOL1         0.1053
     114    H54     22.143070   15.669189   22.568603 H          1 MOL1         0.0783
     115    O28     23.946142   14.835730   23.186993 O.3        1 MOL1        -0.5519
     116    H55     23.988417   15.676387   23.705082 H          1 MOL1         0.3769
     117    C34     23.605025   15.818636   20.979042 C.3        1 MOL1         0.1018
     118    H56     24.592393   15.392269   20.757832 H          1 MOL1         0.0783
     119    C35     22.742529   15.781096   19.687161 C.3        1 MOL1         0.1043
     120    H57     21.899247   16.471115   19.818242 H          1 MOL1         0.0783
     121    O29     22.244340   14.441996   19.441109 O.3        1 MOL1        -0.3740
     122    C36     23.522414   16.232107   18.432440 C.3        1 MOL1         0.0138
     123    H58     23.896759   17.252275   18.590672 H          1 MOL1         0.0794
     124    H59     22.830487   16.263200   17.580258 H          1 MOL1         0.0794
     125    O30     24.609897   15.344277   18.155970 O.3        1 MOL1        -0.5486
     126    H60     24.219582   14.442710   18.114168 H          1 MOL1         0.3769
     127    C1      20.126295   18.490865   24.388362 C.2        1 MOL1         0.6075
     128    O1      19.385508   17.568146   24.671606 O.co2      1 MOL1        -0.6830
     129    O2      21.288892   18.551146   24.741839 O.co2      1 MOL1        -0.6830
     130    C2      19.565428   19.648599   23.565267 C.3        1 MOL1        -0.2050
     131    H1      20.327243   20.432468   23.500245 H          1 MOL1         0.0710
     132    H2      18.728734   20.066913   24.135773 H          1 MOL1         0.0710
     133    C3      19.077577   19.267423   22.142460 C.3        1 MOL1        -0.1947
     134    H3      18.322077   18.477338   22.219036 H          1 MOL1         0.0712
     135    H4      18.578692   20.134806   21.695784 H          1 MOL1         0.0712
     136    C4      20.214525   18.818713   21.201190 C.3        1 MOL1        -0.1921
     137    H5      20.732285   17.946201   21.623088 H          1 MOL1         0.0712
     138    H6      20.954944   19.623039   21.113753 H          1 MOL1         0.0712
     139    C5      19.678485   18.474028   19.797837 C.3        1 MOL1        -0.2936
     140    H7      20.499709   18.201339   19.124158 H          1 MOL1         0.0724
     141    H8      19.152774   19.330938   19.356834 H          1 MOL1         0.0724
     142    H9      18.980479   17.629223   19.844337 H          1 MOL1         0.0724
@<TRIPOS>BOND
    1     1     2    1
    2     1     3    1
    3     1     4    1
    4     4     5    1
    5     4     6    1
    6     6     7    1
    7     4     8    1
    8     8     9    1
    9     8    10    1
   10    10    11    1
   11     8    12    1
   12    12    13    1
   13    12    14    1
   14    14    15    1
   15     1    16    1
   16    14    16    1
   17    14    17    1
   18    17    18    1
   19    17    19    1
   20    17    20    1
   21    20    21    1
   22    22    23    1
   23    22    24    1
   24    22    25    1
   25    25    26    1
   26    25    27    1
   27    27    28    1
   28    25    29    1
   29    29    30    1
   30    29    31    1
   31    31    32    1
   32     3    33    1
   33    29    33    1
   34    33    34    1
   35    33    35    1
   36    35    36    1
   37    22    37    1
   38    35    37    1
   39    35    38    1
   40    38    39    1
   41    38    40    1
   42    38    41    1
   43    41    42    1
   44    43    44    1
   45    43    45    1
   46    43    46    1
   47    46    47    1
   48    46    48    1
   49    48    49    1
   50    46    50    1
   51    50    51    1
   52    50    52    1
   53    52    53    1
   54    24    54    1
   55    50    54    1
   56    54    55    1
   57    54    56    1
   58    56    57    1
   59    43    58    1
   60    56    58    1
   61    56    59    1
   62    59    60    1
   63    59    61    1
   64    59    62    1
   65    62    63    1
   66    64    65    1
   67    64    66    1
   68    64    67    1
   69    67    68    1
   70    67    69    1
   71    69    70    1
   72    67    71    1
   73    71    72    1
   74    71    73    1
   75    73    74    1
   76    45    75    1
   77    71    75    1
   78    75    76    1
   79    75    77    1
   80    77    78    1
   81    64    79    1
   82    77    79    1
   83    77    80    1
   84    80    81    1
   85    80    82    1
   86    80    83    1
   87    83    84    1
   88    85    86    1
   89    85    87    1
   90    85    88    1
   91    88    89    1
   92    88    90    1
   93    90    91    1
   94    88    92    1
   95    92    93    1
   96    92    94    1
   97    94    95    1
   98    66    96    1
   99    92    96    1
  100    96    97    1
  101    96    98    1
  102    98    99    1
  103    85   100    1
  104    98   100    1
  105    98   101    1
  106   101   102    1
  107   101   103    1
  108   101   104    1
  109   104   105    1
  110   106   107    1
  111    12   108    1
  112   106   108    1
  113   106   109    1
  114   109   110    1
  115   109   111    1
  116   111   112    1
  117   109   113    1
  118   113   114    1
  119   113   115    1
  120   115   116    1
  121    87   117    1
  122   113   117    1
  123   117   118    1
  124   117   119    1
  125   119   120    1
  126   106   121    1
  127   119   121    1
  128   119   122    1
  129   122   123    1
  130   122   124    1
  131   122   125    1
  132   125   126    1
  133   127   128    1
  134   127   129    2
  135   127   130    1
  136   130   131    1
  137   130   132    1
  138   130   133    1
  139   133   134    1
  140   133   135    1
  141   133   136    1
  142   136   137    1
  143   136   138    1
  144   136   139    1
  145   139   140    1
  146   139   141    1
  147   139   142    1
@<TRIPOS>SUBSTRUCTURE
       1 MOL1            1 RESIDUE      1      MOL     
       2 MOL1          142 RESIDUE      1      MOL     
@<SCITEGIC>MOL_PROPERTY
VM2 Rank
SciTegic.value.IntegerValue
4

@<SCITEGIC>MOL_PROPERTY
Conf_Id
SciTegic.value.IntegerValue
17109

@<SCITEGIC>MOL_PROPERTY
Probability
SciTegic.value.DoubleValue
1.14

@<SCITEGIC>MOL_PROPERTY
Sum Probability
SciTegic.value.DoubleValue
6.49

@<SCITEGIC>MOL_PROPERTY
Delta G
SciTegic.value.DoubleValue
0.372

@<SCITEGIC>MOL_PROPERTY
G
SciTegic.value.DoubleValue
481.643

@<SCITEGIC>MOL_PROPERTY
E
SciTegic.value.DoubleValue
296.740

@<SCITEGIC>MOL_PROPERTY
-TS
SciTegic.value.DoubleValue
184.902

@<SCITEGIC>MOL_PROPERTY
U+W
SciTegic.value.DoubleValue
171.546

@<SCITEGIC>MOL_PROPERTY
U
SciTegic.value.DoubleValue
235.111

@<SCITEGIC>MOL_PROPERTY
W
SciTegic.value.DoubleValue
-63.565

@<SCITEGIC>MOL_PROPERTY
W(PB)
SciTegic.value.DoubleValue
-69.551

@<SCITEGIC>MOL_PROPERTY
W(SA)
SciTegic.value.DoubleValue
5.986

@<SCITEGIC>MOL_PROPERTY
Valence
SciTegic.value.DoubleValue
150.863

@<SCITEGIC>MOL_PROPERTY
Coulomb
SciTegic.value.DoubleValue
105.167

@<SCITEGIC>MOL_PROPERTY
VdW
SciTegic.value.DoubleValue
-20.919

@<SCITEGIC>MOL_PROPERTY
VdW6
SciTegic.value.DoubleValue
-180.778

@<SCITEGIC>MOL_PROPERTY
VdW12
SciTegic.value.DoubleValue
159.859

@<SCITEGIC>MOL_PROPERTY
Bond
SciTegic.value.DoubleValue
5.069

@<SCITEGIC>MOL_PROPERTY
Angle
SciTegic.value.DoubleValue
12.124

@<SCITEGIC>MOL_PROPERTY
Pdih
SciTegic.value.DoubleValue
133.670

@<SCITEGIC>MOL_PROPERTY
Idih
SciTegic.value.DoubleValue
0.001

@<SCITEGIC>MOL_PROPERTY
Tether
SciTegic.value.DoubleValue
0.000

@<TRIPOS>MOLECULE
CD_guest-s18_vm2_single.mol2 : vm2 host+ligand conformer 5
         142         147           2
SMALL
USER_CHARGES
 
@<TRIPOS>ATOM
       1    C1      16.428085   15.288392   21.860839 C.3        1 MOL1         0.2972
       2    H1      15.389916   15.158449   22.190714 H          1 MOL1         0.0751
       3    O1      16.634624   16.579831   21.250031 O.3        1 MOL1        -0.3740
       4    C2      17.398877   15.143037   23.060737 C.3        1 MOL1         0.1003
       5    H2      17.277089   14.126510   23.456226 H          1 MOL1         0.0783
       6    O2      17.064926   16.083772   24.095199 O.3        1 MOL1        -0.5519
       7    H3      17.893732   16.586123   24.320320 H          1 MOL1         0.3769
       8    C3      18.870003   15.291639   22.593044 C.3        1 MOL1         0.1053
       9    H4      19.022301   16.322243   22.249103 H          1 MOL1         0.0783
      10    O3      19.757229   15.009986   23.682399 O.3        1 MOL1        -0.5519
      11    H5      19.780088   15.843271   24.225077 H          1 MOL1         0.3769
      12    C4      19.183243   14.348160   21.402993 C.3        1 MOL1         0.1018
      13    H6      19.283142   13.322359   21.780712 H          1 MOL1         0.0783
      14    C5      18.088418   14.396370   20.300608 C.3        1 MOL1         0.1043
      15    H7      18.165814   15.359436   19.779936 H          1 MOL1         0.0783
      16    O4      16.773739   14.271195   20.896483 O.3        1 MOL1        -0.3740
      17    C6      18.234095   13.281933   19.240631 C.3        1 MOL1         0.0138
      18    H8      19.177202   13.426576   18.697145 H          1 MOL1         0.0794
      19    H9      17.418798   13.380546   18.511388 H          1 MOL1         0.0794
      20    O5      18.206331   11.985114   19.844034 O.3        1 MOL1        -0.5486
      21    H10     17.359669   11.931462   20.340903 H          1 MOL1         0.3769
      22    C7      14.699348   20.262830   20.964168 C.3        1 MOL1         0.2972
      23    H11     13.990516   21.076556   20.765382 H          1 MOL1         0.0751
      24    O6      15.997174   20.761348   21.340809 O.3        1 MOL1        -0.3740
      25    C8      14.181701   19.356351   22.108660 C.3        1 MOL1         0.1003
      26    H12     13.218242   18.939641   21.787417 H          1 MOL1         0.0783
      27    O7      13.993720   20.102495   23.319538 O.3        1 MOL1        -0.5519
      28    H13     13.810961   19.419376   24.003461 H          1 MOL1         0.3769
      29    C9      15.149891   18.176098   22.366001 C.3        1 MOL1         0.1053
      30    H14     16.088277   18.588745   22.761423 H          1 MOL1         0.0783
      31    O8      14.560560   17.303133   23.337092 O.3        1 MOL1        -0.5519
      32    H15     15.315373   16.807892   23.742211 H          1 MOL1         0.3769
      33    C10     15.472096   17.410838   21.049347 C.3        1 MOL1         0.1018
      34    H16     14.604291   16.810118   20.746800 H          1 MOL1         0.0783
      35    C11     15.841746   18.381507   19.894432 C.3        1 MOL1         0.1043
      36    H17     16.827230   18.815378   20.108374 H          1 MOL1         0.0783
      37    O9      14.854412   19.436976   19.791406 O.3        1 MOL1        -0.3740
      38    C12     15.923025   17.681620   18.519732 C.3        1 MOL1         0.0138
      39    H18     16.677078   16.884886   18.566021 H          1 MOL1         0.0794
      40    H19     16.261397   18.411854   17.772701 H          1 MOL1         0.0794
      41    O10     14.653705   17.139423   18.143314 O.3        1 MOL1        -0.5486
      42    H20     14.011323   17.880300   18.214994 H          1 MOL1         0.3769
      43    C13     18.358773   24.140055   21.525871 C.3        1 MOL1         0.2972
      44    H21     18.765110   25.159010   21.546654 H          1 MOL1         0.0751
      45    O11     19.405245   23.146983   21.513875 O.3        1 MOL1        -0.3740
      46    C14     17.462432   23.908367   22.767419 C.3        1 MOL1         0.1003
      47    H22     16.643751   24.638241   22.720942 H          1 MOL1         0.0783
      48    O12     18.197164   24.101376   23.984087 O.3        1 MOL1        -0.5519
      49    H23     17.599128   23.766805   24.689731 H          1 MOL1         0.3769
      50    C15     16.839209   22.494628   22.744996 C.3        1 MOL1         0.1053
      51    H24     17.646896   21.767639   22.892656 H          1 MOL1         0.0783
      52    O13     15.878577   22.377555   23.801556 O.3        1 MOL1        -0.5519
      53    H25     15.383701   21.535778   23.642451 H          1 MOL1         0.3769
      54    C16     16.155434   22.190933   21.389061 C.3        1 MOL1         0.1018
      55    H26     15.191386   22.715712   21.359685 H          1 MOL1         0.0783
      56    C17     17.020602   22.605836   20.166302 C.3        1 MOL1         0.1043
      57    H27     17.853898   21.896399   20.074614 H          1 MOL1         0.0783
      58    O14     17.538526   23.946556   20.354454 O.3        1 MOL1        -0.3740
      59    C18     16.240478   22.591564   18.833050 C.3        1 MOL1         0.0138
      60    H28     15.906134   21.567635   18.621768 H          1 MOL1         0.0794
      61    H29     16.921106   22.886474   18.023257 H          1 MOL1         0.0794
      62    O15     15.118168   23.477424   18.883994 O.3        1 MOL1        -0.5486
      63    H30     15.478669   24.361170   19.119976 H          1 MOL1         0.3769
      64    C19     23.507275   22.667023   21.055516 C.3        1 MOL1         0.2972
      65    H31     24.574769   22.799558   20.837767 H          1 MOL1         0.0751
      66    O16     23.191060   21.281385   21.296133 O.3        1 MOL1        -0.3740
      67    C20     23.082194   23.525667   22.279506 C.3        1 MOL1         0.1003
      68    H32     23.284977   24.573391   22.023586 H          1 MOL1         0.0783
      69    O17     23.851595   23.178206   23.441831 O.3        1 MOL1        -0.5519
      70    H33     23.590114   22.257758   23.695037 H          1 MOL1         0.3769
      71    C21     21.558650   23.392788   22.546346 C.3        1 MOL1         0.1053
      72    H34     21.363598   22.369143   22.890575 H          1 MOL1         0.0783
      73    O18     21.135854   24.333064   23.542191 O.3        1 MOL1        -0.5519
      74    H35     20.173837   24.166635   23.700417 H          1 MOL1         0.3769
      75    C22     20.736005   23.635727   21.255277 C.3        1 MOL1         0.1018
      76    H36     20.743215   24.709948   21.028044 H          1 MOL1         0.0783
      77    C23     21.293481   22.864709   20.030413 C.3        1 MOL1         0.1043
      78    H37     21.089534   21.794346   20.166090 H          1 MOL1         0.0783
      79    O19     22.721001   23.093602   19.923839 O.3        1 MOL1        -0.3740
      80    C24     20.652836   23.304746   18.695234 C.3        1 MOL1         0.0138
      81    H38     19.571130   23.125377   18.737954 H          1 MOL1         0.0794
      82    H39     21.057643   22.679806   17.888111 H          1 MOL1         0.0794
      83    O20     20.913301   24.686446   18.429995 O.3        1 MOL1        -0.5486
      84    H40     21.889168   24.793307   18.483406 H          1 MOL1         0.3769
      85    C25     24.903868   17.600566   22.057131 C.3        1 MOL1         0.2972
      86    H41     25.543420   16.750045   22.324887 H          1 MOL1         0.0751
      87    O21     23.718462   17.176990   21.350923 O.3        1 MOL1        -0.3740
      88    C26     24.482595   18.383548   23.327262 C.3        1 MOL1         0.1003
      89    H42     25.397481   18.785397   23.781232 H          1 MOL1         0.0783
      90    O22     23.843464   17.509050   24.272155 O.3        1 MOL1        -0.5519
      91    H43     22.933026   17.870443   24.447749 H          1 MOL1         0.3769
      92    C27     23.579743   19.582822   22.941460 C.3        1 MOL1         0.1053
      93    H44     22.645417   19.181463   22.531734 H          1 MOL1         0.0783
      94    O23     23.291189   20.381712   24.095461 O.3        1 MOL1        -0.5519
      95    H45     22.588266   19.877391   24.582903 H          1 MOL1         0.3769
      96    C28     24.240127   20.461164   21.848645 C.3        1 MOL1         0.1018
      97    H46     25.030022   21.064123   22.315506 H          1 MOL1         0.0783
      98    C29     24.835338   19.622103   20.681219 C.3        1 MOL1         0.1043
      99    H47     24.002656   19.229521   20.082394 H          1 MOL1         0.0783
     100    O24     25.619368   18.520916   21.205668 O.3        1 MOL1        -0.3740
     101    C30     25.744654   20.434574   19.732387 C.3        1 MOL1         0.0138
     102    H48     25.139525   21.192644   19.217947 H          1 MOL1         0.0794
     103    H49     26.142860   19.759779   18.962761 H          1 MOL1         0.0794
     104    O25     26.815337   21.058518   20.447058 O.3        1 MOL1        -0.5486
     105    H50     27.302430   20.334820   20.900430 H          1 MOL1         0.3769
     106    C31     21.435502   13.853509   20.525722 C.3        1 MOL1         0.2972
     107    H51     21.004177   12.895480   20.208337 H          1 MOL1         0.0751
     108    O26     20.404466   14.825773   20.803540 O.3        1 MOL1        -0.3740
     109    C32     22.358711   13.668240   21.760292 C.3        1 MOL1         0.1003
     110    H52     23.189324   13.024339   21.444122 H          1 MOL1         0.0783
     111    O27     21.664961   13.019843   22.837173 O.3        1 MOL1        -0.5519
     112    H53     21.048572   13.693713   23.218406 H          1 MOL1         0.3769
     113    C33     22.961969   15.028789   22.201907 C.3        1 MOL1         0.1053
     114    H54     22.145055   15.653279   22.589782 H          1 MOL1         0.0783
     115    O28     23.941003   14.817606   23.226364 O.3        1 MOL1        -0.5519
     116    H55     23.984891   15.663024   23.736445 H          1 MOL1         0.3769
     117    C34     23.617273   15.780531   21.007222 C.3        1 MOL1         0.1018
     118    H56     24.604650   15.348411   20.797491 H          1 MOL1         0.0783
     119    C35     22.764030   15.732181   19.709621 C.3        1 MOL1         0.1043
     120    H57     21.922829   16.427133   19.826886 H          1 MOL1         0.0783
     121    O29     22.261654   14.392780   19.474599 O.3        1 MOL1        -0.3740
     122    C36     23.555089   16.165918   18.455804 C.3        1 MOL1         0.0138
     123    H58     23.933098   17.185998   18.605731 H          1 MOL1         0.0794
     124    H59     22.869568   16.190840   17.598272 H          1 MOL1         0.0794
     125    O30     24.640392   15.270182   18.196945 O.3        1 MOL1        -0.5486
     126    H60     24.246269   14.369959   18.162315 H          1 MOL1         0.3769
     127    C1      20.123200   18.493759   24.343086 C.2        1 MOL1         0.6075
     128    O1      21.282802   18.540262   24.707958 O.co2      1 MOL1        -0.6830
     129    O2      19.364322   17.588012   24.632776 O.co2      1 MOL1        -0.6830
     130    C2      19.588614   19.650334   23.501230 C.3        1 MOL1        -0.2050
     131    H1      20.362056   20.422622   23.436718 H          1 MOL1         0.0710
     132    H2      18.752481   20.085773   24.059444 H          1 MOL1         0.0710
     133    C3      19.109389   19.262294   22.077096 C.3        1 MOL1        -0.1947
     134    H3      18.346427   18.479385   22.154451 H          1 MOL1         0.0712
     135    H4      18.621713   20.130831   21.620137 H          1 MOL1         0.0712
     136    C4      20.249914   18.796807   21.148155 C.3        1 MOL1        -0.1921
     137    H5      20.757980   17.924782   21.582865 H          1 MOL1         0.0712
     138    H6      20.997005   19.594924   21.059355 H          1 MOL1         0.0712
     139    C5      19.722152   18.441731   19.744106 C.3        1 MOL1        -0.2936
     140    H7      20.547668   18.161012   19.078846 H          1 MOL1         0.0724
     141    H8      19.200994   19.296059   19.293694 H          1 MOL1         0.0724
     142    H9      19.023789   17.597443   19.795404 H          1 MOL1         0.0724
@<TRIPOS>BOND
    1     1     2    1
    2     1     3    1
    3     1     4    1
    4     4     5    1
    5     4     6    1
    6     6     7    1
    7     4     8    1
    8     8     9    1
    9     8    10    1
   10    10    11    1
   11     8    12    1
   12    12    13    1
   13    12    14    1
   14    14    15    1
   15     1    16    1
   16    14    16    1
   17    14    17    1
   18    17    18    1
   19    17    19    1
   20    17    20    1
   21    20    21    1
   22    22    23    1
   23    22    24    1
   24    22    25    1
   25    25    26    1
   26    25    27    1
   27    27    28    1
   28    25    29    1
   29    29    30    1
   30    29    31    1
   31    31    32    1
   32     3    33    1
   33    29    33    1
   34    33    34    1
   35    33    35    1
   36    35    36    1
   37    22    37    1
   38    35    37    1
   39    35    38    1
   40    38    39    1
   41    38    40    1
   42    38    41    1
   43    41    42    1
   44    43    44    1
   45    43    45    1
   46    43    46    1
   47    46    47    1
   48    46    48    1
   49    48    49    1
   50    46    50    1
   51    50    51    1
   52    50    52    1
   53    52    53    1
   54    24    54    1
   55    50    54    1
   56    54    55    1
   57    54    56    1
   58    56    57    1
   59    43    58    1
   60    56    58    1
   61    56    59    1
   62    59    60    1
   63    59    61    1
   64    59    62    1
   65    62    63    1
   66    64    65    1
   67    64    66    1
   68    64    67    1
   69    67    68    1
   70    67    69    1
   71    69    70    1
   72    67    71    1
   73    71    72    1
   74    71    73    1
   75    73    74    1
   76    45    75    1
   77    71    75    1
   78    75    76    1
   79    75    77    1
   80    77    78    1
   81    64    79    1
   82    77    79    1
   83    77    80    1
   84    80    81    1
   85    80    82    1
   86    80    83    1
   87    83    84    1
   88    85    86    1
   89    85    87    1
   90    85    88    1
   91    88    89    1
   92    88    90    1
   93    90    91    1
   94    88    92    1
   95    92    93    1
   96    92    94    1
   97    94    95    1
   98    66    96    1
   99    92    96    1
  100    96    97    1
  101    96    98    1
  102    98    99    1
  103    85   100    1
  104    98   100    1
  105    98   101    1
  106   101   102    1
  107   101   103    1
  108   101   104    1
  109   104   105    1
  110   106   107    1
  111    12   108    1
  112   106   108    1
  113   106   109    1
  114   109   110    1
  115   109   111    1
  116   111   112    1
  117   109   113    1
  118   113   114    1
  119   113   115    1
  120   115   116    1
  121    87   117    1
  122   113   117    1
  123   117   118    1
  124   117   119    1
  125   119   120    1
  126   106   121    1
  127   119   121    1
  128   119   122    1
  129   122   123    1
  130   122   124    1
  131   122   125    1
  132   125   126    1
  133   127   128    1
  134   127   129    2
  135   127   130    1
  136   130   131    1
  137   130   132    1
  138   130   133    1
  139   133   134    1
  140   133   135    1
  141   133   136    1
  142   136   137    1
  143   136   138    1
  144   136   139    1
  145   139   140    1
  146   139   141    1
  147   139   142    1
@<TRIPOS>SUBSTRUCTURE
       1 MOL1            1 RESIDUE      1      MOL     
       2 MOL1          142 RESIDUE      1      MOL     
@<SCITEGIC>MOL_PROPERTY
VM2 Rank
SciTegic.value.IntegerValue
5

@<SCITEGIC>MOL_PROPERTY
Conf_Id
SciTegic.value.IntegerValue
7972

@<SCITEGIC>MOL_PROPERTY
Probability
SciTegic.value.DoubleValue
1.14

@<SCITEGIC>MOL_PROPERTY
Sum Probability
SciTegic.value.DoubleValue
7.63

@<SCITEGIC>MOL_PROPERTY
Delta G
SciTegic.value.DoubleValue
0.374

@<SCITEGIC>MOL_PROPERTY
G
SciTegic.value.DoubleValue
481.644

@<SCITEGIC>MOL_PROPERTY
E
SciTegic.value.DoubleValue
296.392

@<SCITEGIC>MOL_PROPERTY
-TS
SciTegic.value.DoubleValue
185.252

@<SCITEGIC>MOL_PROPERTY
U+W
SciTegic.value.DoubleValue
171.198

@<SCITEGIC>MOL_PROPERTY
U
SciTegic.value.DoubleValue
233.532

@<SCITEGIC>MOL_PROPERTY
W
SciTegic.value.DoubleValue
-62.319

@<SCITEGIC>MOL_PROPERTY
W(PB)
SciTegic.value.DoubleValue
-68.372

@<SCITEGIC>MOL_PROPERTY
W(SA)
SciTegic.value.DoubleValue
6.053

@<SCITEGIC>MOL_PROPERTY
Valence
SciTegic.value.DoubleValue
150.455

@<SCITEGIC>MOL_PROPERTY
Coulomb
SciTegic.value.DoubleValue
103.384

@<SCITEGIC>MOL_PROPERTY
VdW
SciTegic.value.DoubleValue
-20.307

@<SCITEGIC>MOL_PROPERTY
VdW6
SciTegic.value.DoubleValue
-181.345

@<SCITEGIC>MOL_PROPERTY
VdW12
SciTegic.value.DoubleValue
161.039

@<SCITEGIC>MOL_PROPERTY
Bond
SciTegic.value.DoubleValue
5.114

@<SCITEGIC>MOL_PROPERTY
Angle
SciTegic.value.DoubleValue
12.286

@<SCITEGIC>MOL_PROPERTY
Pdih
SciTegic.value.DoubleValue
133.054

@<SCITEGIC>MOL_PROPERTY
Idih
SciTegic.value.DoubleValue
0.001

@<SCITEGIC>MOL_PROPERTY
Tether
SciTegic.value.DoubleValue
0.000

@<TRIPOS>MOLECULE
CD_guest-s18_vm2_single.mol2 : vm2 host+ligand conformer 6
         142         147           2
SMALL
USER_CHARGES
 
@<TRIPOS>ATOM
       1    C1      16.454670   15.268731   21.886105 C.3        1 MOL1         0.2972
       2    H1      15.419067   15.125264   22.218517 H          1 MOL1         0.0751
       3    O1      16.641817   16.563122   21.275341 O.3        1 MOL1        -0.3740
       4    C2      17.430138   15.130085   23.083713 C.3        1 MOL1         0.1003
       5    H2      17.316571   14.112240   23.478281 H          1 MOL1         0.0783
       6    O2      17.092696   16.066337   24.120942 O.3        1 MOL1        -0.5519
       7    H3      17.922053   16.562316   24.357652 H          1 MOL1         0.3769
       8    C3      18.899576   15.288963   22.615418 C.3        1 MOL1         0.1053
       9    H4      19.045541   16.320941   22.273145 H          1 MOL1         0.0783
      10    O3      19.787572   15.009779   23.704784 O.3        1 MOL1        -0.5519
      11    H5      19.805471   15.840723   24.251283 H          1 MOL1         0.3769
      12    C4      19.217415   14.348671   21.424120 C.3        1 MOL1         0.1018
      13    H6      19.319126   13.322075   21.799170 H          1 MOL1         0.0783
      14    C5      18.123363   14.397758   20.321265 C.3        1 MOL1         0.1043
      15    H7      18.196130   15.364777   19.806917 H          1 MOL1         0.0783
      16    O4      16.808350   14.260314   20.915166 O.3        1 MOL1        -0.3740
      17    C6      18.277755   13.290723   19.254730 C.3        1 MOL1         0.0138
      18    H8      19.222090   13.443199   18.715523 H          1 MOL1         0.0794
      19    H9      17.464717   13.389858   18.523149 H          1 MOL1         0.0794
      20    O5      18.254058   11.990060   19.849970 O.3        1 MOL1        -0.5486
      21    H10     17.407165   11.930039   20.345691 H          1 MOL1         0.3769
      22    C7      14.668690   20.227516   21.027364 C.3        1 MOL1         0.2972
      23    H11     13.952184   21.037532   20.841688 H          1 MOL1         0.0751
      24    O6      15.971397   20.730841   21.381289 O.3        1 MOL1        -0.3740
      25    C8      14.176646   19.318241   22.180023 C.3        1 MOL1         0.1003
      26    H12     13.210731   18.895518   21.874374 H          1 MOL1         0.0783
      27    O7      14.002899   20.061985   23.394379 O.3        1 MOL1        -0.5519
      28    H13     13.834083   19.377476   24.080403 H          1 MOL1         0.3769
      29    C9      15.156723   18.143988   22.419284 C.3        1 MOL1         0.1053
      30    H14     16.095211   18.560689   22.809969 H          1 MOL1         0.0783
      31    O8      14.579831   17.259964   23.387546 O.3        1 MOL1        -0.5519
      32    H15     15.341179   16.770573   23.787592 H          1 MOL1         0.3769
      33    C10     15.472295   17.388826   21.094622 C.3        1 MOL1         0.1018
      34    H16     14.604733   16.784278   20.798813 H          1 MOL1         0.0783
      35    C11     15.816525   18.363762   19.936266 C.3        1 MOL1         0.1043
      36    H17     16.803279   18.807661   20.124194 H          1 MOL1         0.0783
      37    O9      14.803754   19.397048   19.855211 O.3        1 MOL1        -0.3740
      38    C12     15.858857   17.646476   18.570861 C.3        1 MOL1         0.0138
      39    H18     14.877269   17.198743   18.366107 H          1 MOL1         0.0794
      40    H19     16.595743   16.833444   18.612327 H          1 MOL1         0.0794
      41    O10     16.210414   18.572772   17.541190 O.3        1 MOL1        -0.5486
      42    H20     15.590006   19.328440   17.636979 H          1 MOL1         0.3769
      43    C13     18.327672   24.121075   21.535162 C.3        1 MOL1         0.2972
      44    H21     18.725104   25.143669   21.543891 H          1 MOL1         0.0751
      45    O11     19.382416   23.137685   21.556334 O.3        1 MOL1        -0.3740
      46    C14     17.416757   23.905509   22.768771 C.3        1 MOL1         0.1003
      47    H22     16.596515   24.631947   22.700872 H          1 MOL1         0.0783
      48    O12     18.137743   24.121243   23.989953 O.3        1 MOL1        -0.5519
      49    H23     17.532453   23.798750   24.694980 H          1 MOL1         0.3769
      50    C15     16.797829   22.489725   22.763010 C.3        1 MOL1         0.1053
      51    H24     17.604903   21.767394   22.936913 H          1 MOL1         0.0783
      52    O13     15.821771   22.390925   23.807150 O.3        1 MOL1        -0.5519
      53    H25     15.342744   21.536428   23.667705 H          1 MOL1         0.3769
      54    C16     16.135867   22.160109   21.402080 C.3        1 MOL1         0.1018
      55    H26     15.175407   22.688814   21.342660 H          1 MOL1         0.0783
      56    C17     17.026368   22.546680   20.188261 C.3        1 MOL1         0.1043
      57    H27     17.865909   21.840426   20.134186 H          1 MOL1         0.0783
      58    O14     17.529974   23.896841   20.353635 O.3        1 MOL1        -0.3740
      59    C18     16.278824   22.488281   18.838076 C.3        1 MOL1         0.0138
      60    H28     15.957963   21.455837   18.650489 H          1 MOL1         0.0794
      61    H29     16.976735   22.763547   18.036042 H          1 MOL1         0.0794
      62    O15     15.148653   23.365554   18.836155 O.3        1 MOL1        -0.5486
      63    H30     15.495248   24.258582   19.057033 H          1 MOL1         0.3769
      64    C19     23.488261   22.686856   21.100135 C.3        1 MOL1         0.2972
      65    H31     24.554294   22.829240   20.881463 H          1 MOL1         0.0751
      66    O16     23.184010   21.298789   21.341531 O.3        1 MOL1        -0.3740
      67    C20     23.054914   23.541589   22.323621 C.3        1 MOL1         0.1003
      68    H32     23.249786   24.590903   22.068117 H          1 MOL1         0.0783
      69    O17     23.824478   23.200849   23.487688 O.3        1 MOL1        -0.5519
      70    H33     23.571172   22.277747   23.739623 H          1 MOL1         0.3769
      71    C21     21.531857   23.395881   22.586146 C.3        1 MOL1         0.1053
      72    H34     21.344661   22.372136   22.934925 H          1 MOL1         0.0783
      73    O18     21.095922   24.338186   23.574453 O.3        1 MOL1        -0.5519
      74    H35     20.133266   24.168174   23.724786 H          1 MOL1         0.3769
      75    C22     20.711383   23.625318   21.291207 C.3        1 MOL1         0.1018
      76    H36     20.717195   24.697411   21.053440 H          1 MOL1         0.0783
      77    C23     21.272493   22.848328   20.072764 C.3        1 MOL1         0.1043
      78    H37     21.077322   21.776005   20.207278 H          1 MOL1         0.0783
      79    O19     22.695291   23.107466   19.970366 O.3        1 MOL1        -0.3740
      80    C24     20.628063   23.300191   18.745523 C.3        1 MOL1         0.0138
      81    H38     20.844957   24.364071   18.581049 H          1 MOL1         0.0794
      82    H39     19.539058   23.187237   18.811398 H          1 MOL1         0.0794
      83    O20     21.131683   22.513787   17.664593 O.3        1 MOL1        -0.5486
      84    H40     22.109749   22.510944   17.765406 H          1 MOL1         0.3769
      85    C25     24.915795   17.628884   22.107773 C.3        1 MOL1         0.2972
      86    H41     25.558878   16.781716   22.377669 H          1 MOL1         0.0751
      87    O21     23.735211   17.199604   21.397794 O.3        1 MOL1        -0.3740
      88    C26     24.486544   18.409732   23.376564 C.3        1 MOL1         0.1003
      89    H42     25.397835   18.815710   23.834073 H          1 MOL1         0.0783
      90    O22     23.847915   17.531273   24.318237 O.3        1 MOL1        -0.5519
      91    H43     22.939868   17.895063   24.501103 H          1 MOL1         0.3769
      92    C27     23.579124   19.604699   22.988636 C.3        1 MOL1         0.1053
      93    H44     22.647148   19.198773   22.578102 H          1 MOL1         0.0783
      94    O23     23.285688   20.402931   24.141904 O.3        1 MOL1        -0.5519
      95    H45     22.583520   19.896901   24.628842 H          1 MOL1         0.3769
      96    C28     24.237017   20.485601   21.896162 C.3        1 MOL1         0.1018
      97    H46     25.022765   21.093689   22.363344 H          1 MOL1         0.0783
      98    C29     24.837718   19.648948   20.729790 C.3        1 MOL1         0.1043
      99    H47     24.007201   19.252577   20.130070 H          1 MOL1         0.0783
     100    O24     25.627249   18.551466   21.255272 O.3        1 MOL1        -0.3740
     101    C30     25.743315   20.466217   19.781554 C.3        1 MOL1         0.0138
     102    H48     25.134668   21.221858   19.267767 H          1 MOL1         0.0794
     103    H49     26.144543   19.794089   19.011236 H          1 MOL1         0.0794
     104    O25     26.811106   21.094515   20.496704 O.3        1 MOL1        -0.5486
     105    H50     27.300575   20.373065   20.951067 H          1 MOL1         0.3769
     106    C31     21.477255   13.864088   20.555577 C.3        1 MOL1         0.2972
     107    H51     21.054730   12.904105   20.232323 H          1 MOL1         0.0751
     108    O26     20.438114   14.829953   20.826595 O.3        1 MOL1        -0.3740
     109    C32     22.392345   13.682473   21.796384 C.3        1 MOL1         0.1003
     110    H52     23.229433   13.044934   21.484441 H          1 MOL1         0.0783
     111    O27     21.697298   13.026510   22.867602 O.3        1 MOL1        -0.5519
     112    H53     21.076148   13.696147   23.248487 H          1 MOL1         0.3769
     113    C33     22.983327   15.046885   22.242707 C.3        1 MOL1         0.1053
     114    H54     22.161027   15.665128   22.629098 H          1 MOL1         0.0783
     115    O28     23.961860   14.841078   23.268540 O.3        1 MOL1        -0.5519
     116    H55     23.997049   15.685301   23.781451 H          1 MOL1         0.3769
     117    C34     23.637218   15.804573   21.051012 C.3        1 MOL1         0.1018
     118    H56     24.625292   15.374804   20.839115 H          1 MOL1         0.0783
     119    C35     22.789660   15.758801   19.750970 C.3        1 MOL1         0.1043
     120    H57     21.944404   16.451044   19.857573 H          1 MOL1         0.0783
     121    O29     22.311806   14.410765   19.514385 O.3        1 MOL1        -0.3740
     122    C36     23.610967   16.186947   18.517080 C.3        1 MOL1         0.0138
     123    H58     24.430656   15.472644   18.362459 H          1 MOL1         0.0794
     124    H59     24.056915   17.173123   18.703239 H          1 MOL1         0.0794
     125    O30     22.769799   16.241228   17.363554 O.3        1 MOL1        -0.5486
     126    H60     22.268772   15.395101   17.354052 H          1 MOL1         0.3769
     127    C1      20.126487   18.494675   24.409486 C.2        1 MOL1         0.6075
     128    O1      21.286374   18.559956   24.771011 O.co2      1 MOL1        -0.6830
     129    O2      19.386370   17.570851   24.691001 O.co2      1 MOL1        -0.6830
     130    C2      19.568361   19.646619   23.576543 C.3        1 MOL1        -0.2050
     131    H1      20.327699   20.433139   23.514510 H          1 MOL1         0.0710
     132    H2      18.725065   20.064240   24.137770 H          1 MOL1         0.0710
     133    C3      19.094578   19.256715   22.151401 C.3        1 MOL1        -0.1947
     134    H3      18.341164   18.464391   22.225118 H          1 MOL1         0.0712
     135    H4      18.597009   20.119980   21.695502 H          1 MOL1         0.0712
     136    C4      20.241493   18.807020   21.222900 C.3        1 MOL1        -0.1921
     137    H5      20.759150   17.939063   21.654150 H          1 MOL1         0.0712
     138    H6      20.979444   19.613749   21.136666 H          1 MOL1         0.0712
     139    C5      19.719489   18.451358   19.817048 C.3        1 MOL1        -0.2936
     140    H7      20.548022   18.175157   19.153040 H          1 MOL1         0.0724
     141    H8      19.196559   19.303877   19.364545 H          1 MOL1         0.0724
     142    H9      19.023236   17.605168   19.862454 H          1 MOL1         0.0724
@<TRIPOS>BOND
    1     1     2    1
    2     1     3    1
    3     1     4    1
    4     4     5    1
    5     4     6    1
    6     6     7    1
    7     4     8    1
    8     8     9    1
    9     8    10    1
   10    10    11    1
   11     8    12    1
   12    12    13    1
   13    12    14    1
   14    14    15    1
   15     1    16    1
   16    14    16    1
   17    14    17    1
   18    17    18    1
   19    17    19    1
   20    17    20    1
   21    20    21    1
   22    22    23    1
   23    22    24    1
   24    22    25    1
   25    25    26    1
   26    25    27    1
   27    27    28    1
   28    25    29    1
   29    29    30    1
   30    29    31    1
   31    31    32    1
   32     3    33    1
   33    29    33    1
   34    33    34    1
   35    33    35    1
   36    35    36    1
   37    22    37    1
   38    35    37    1
   39    35    38    1
   40    38    39    1
   41    38    40    1
   42    38    41    1
   43    41    42    1
   44    43    44    1
   45    43    45    1
   46    43    46    1
   47    46    47    1
   48    46    48    1
   49    48    49    1
   50    46    50    1
   51    50    51    1
   52    50    52    1
   53    52    53    1
   54    24    54    1
   55    50    54    1
   56    54    55    1
   57    54    56    1
   58    56    57    1
   59    43    58    1
   60    56    58    1
   61    56    59    1
   62    59    60    1
   63    59    61    1
   64    59    62    1
   65    62    63    1
   66    64    65    1
   67    64    66    1
   68    64    67    1
   69    67    68    1
   70    67    69    1
   71    69    70    1
   72    67    71    1
   73    71    72    1
   74    71    73    1
   75    73    74    1
   76    45    75    1
   77    71    75    1
   78    75    76    1
   79    75    77    1
   80    77    78    1
   81    64    79    1
   82    77    79    1
   83    77    80    1
   84    80    81    1
   85    80    82    1
   86    80    83    1
   87    83    84    1
   88    85    86    1
   89    85    87    1
   90    85    88    1
   91    88    89    1
   92    88    90    1
   93    90    91    1
   94    88    92    1
   95    92    93    1
   96    92    94    1
   97    94    95    1
   98    66    96    1
   99    92    96    1
  100    96    97    1
  101    96    98    1
  102    98    99    1
  103    85   100    1
  104    98   100    1
  105    98   101    1
  106   101   102    1
  107   101   103    1
  108   101   104    1
  109   104   105    1
  110   106   107    1
  111    12   108    1
  112   106   108    1
  113   106   109    1
  114   109   110    1
  115   109   111    1
  116   111   112    1
  117   109   113    1
  118   113   114    1
  119   113   115    1
  120   115   116    1
  121    87   117    1
  122   113   117    1
  123   117   118    1
  124   117   119    1
  125   119   120    1
  126   106   121    1
  127   119   121    1
  128   119   122    1
  129   122   123    1
  130   122   124    1
  131   122   125    1
  132   125   126    1
  133   127   128    1
  134   127   129    2
  135   127   130    1
  136   130   131    1
  137   130   132    1
  138   130   133    1
  139   133   134    1
  140   133   135    1
  141   133   136    1
  142   136   137    1
  143   136   138    1
  144   136   139    1
  145   139   140    1
  146   139   141    1
  147   139   142    1
@<TRIPOS>SUBSTRUCTURE
       1 MOL1            1 RESIDUE      1      MOL     
       2 MOL1          142 RESIDUE      1      MOL     
@<SCITEGIC>MOL_PROPERTY
VM2 Rank
SciTegic.value.IntegerValue
6

@<SCITEGIC>MOL_PROPERTY
Conf_Id
SciTegic.value.IntegerValue
18854

@<SCITEGIC>MOL_PROPERTY
Probability
SciTegic.value.DoubleValue
1.13

@<SCITEGIC>MOL_PROPERTY
Sum Probability
SciTegic.value.DoubleValue
8.77

@<SCITEGIC>MOL_PROPERTY
Delta G
SciTegic.value.DoubleValue
0.377

@<SCITEGIC>MOL_PROPERTY
G
SciTegic.value.DoubleValue
481.647

@<SCITEGIC>MOL_PROPERTY
E
SciTegic.value.DoubleValue
296.899

@<SCITEGIC>MOL_PROPERTY
-TS
SciTegic.value.DoubleValue
184.748

@<SCITEGIC>MOL_PROPERTY
U+W
SciTegic.value.DoubleValue
171.705

@<SCITEGIC>MOL_PROPERTY
U
SciTegic.value.DoubleValue
235.988

@<SCITEGIC>MOL_PROPERTY
W
SciTegic.value.DoubleValue
-64.282

@<SCITEGIC>MOL_PROPERTY
W(PB)
SciTegic.value.DoubleValue
-70.258

@<SCITEGIC>MOL_PROPERTY
W(SA)
SciTegic.value.DoubleValue
5.976

@<SCITEGIC>MOL_PROPERTY
Valence
SciTegic.value.DoubleValue
151.120

@<SCITEGIC>MOL_PROPERTY
Coulomb
SciTegic.value.DoubleValue
106.032

@<SCITEGIC>MOL_PROPERTY
VdW
SciTegic.value.DoubleValue
-21.164

@<SCITEGIC>MOL_PROPERTY
VdW6
SciTegic.value.DoubleValue
-180.431

@<SCITEGIC>MOL_PROPERTY
VdW12
SciTegic.value.DoubleValue
159.267

@<SCITEGIC>MOL_PROPERTY
Bond
SciTegic.value.DoubleValue
5.047

@<SCITEGIC>MOL_PROPERTY
Angle
SciTegic.value.DoubleValue
12.052

@<SCITEGIC>MOL_PROPERTY
Pdih
SciTegic.value.DoubleValue
134.020

@<SCITEGIC>MOL_PROPERTY
Idih
SciTegic.value.DoubleValue
0.001

@<SCITEGIC>MOL_PROPERTY
Tether
SciTegic.value.DoubleValue
0.000

@<TRIPOS>MOLECULE
CD_guest-s18_vm2_single.mol2 : vm2 host+ligand conformer 7
         142         147           2
SMALL
USER_CHARGES
 
@<TRIPOS>ATOM
       1    C1      16.484266   15.204820   22.022029 C.3        1 MOL1         0.2972
       2    H1      15.455461   15.065660   22.376726 H          1 MOL1         0.0751
       3    O1      16.658572   16.486851   21.383140 O.3        1 MOL1        -0.3740
       4    C2      17.482504   15.089814   23.201467 C.3        1 MOL1         0.1003
       5    H2      17.378066   14.079502   23.617336 H          1 MOL1         0.0783
       6    O2      17.162401   16.044942   24.226808 O.3        1 MOL1        -0.5519
       7    H3      17.996634   16.541139   24.444804 H          1 MOL1         0.3769
       8    C3      18.941984   15.240897   22.699800 C.3        1 MOL1         0.1053
       9    H4      19.081667   16.268584   22.341980 H          1 MOL1         0.0783
      10    O3      19.848532   14.976847   23.776948 O.3        1 MOL1        -0.5519
      11    H5      19.872159   15.814060   24.313765 H          1 MOL1         0.3769
      12    C4      19.238187   14.285787   21.512164 C.3        1 MOL1         0.1018
      13    H6      19.348215   13.262131   21.893179 H          1 MOL1         0.0783
      14    C5      18.121039   14.318571   20.432335 C.3        1 MOL1         0.1043
      15    H7      18.180951   15.272742   19.892223 H          1 MOL1         0.0783
      16    O4      16.824841   14.178446   21.066903 O.3        1 MOL1        -0.3740
      17    C6      18.256145   13.174729   19.405969 C.3        1 MOL1         0.0138
      18    H8      18.190380   12.209986   19.926695 H          1 MOL1         0.0794
      19    H9      19.241124   13.232434   18.924601 H          1 MOL1         0.0794
      20    O5      17.228613   13.282684   18.418923 O.3        1 MOL1        -0.5486
      21    H10     16.385897   13.380431   18.916984 H          1 MOL1         0.3769
      22    C7      14.672363   20.136035   21.076274 C.3        1 MOL1         0.2972
      23    H11     13.950065   20.939695   20.885834 H          1 MOL1         0.0751
      24    O6      15.980605   20.650203   21.392530 O.3        1 MOL1        -0.3740
      25    C8      14.205632   19.258120   22.262928 C.3        1 MOL1         0.1003
      26    H12     13.233563   18.827211   21.990010 H          1 MOL1         0.0783
      27    O7      14.058448   20.036079   23.459530 O.3        1 MOL1        -0.5519
      28    H13     13.909903   19.371257   24.169095 H          1 MOL1         0.3769
      29    C9      15.191827   18.091328   22.512610 C.3        1 MOL1         0.1053
      30    H14     16.136711   18.519420   22.874155 H          1 MOL1         0.0783
      31    O8      14.636705   17.231107   23.514433 O.3        1 MOL1        -0.5519
      32    H15     15.406575   16.750148   23.908418 H          1 MOL1         0.3769
      33    C10     15.483419   17.303028   21.201797 C.3        1 MOL1         0.1018
      34    H16     14.612413   16.688560   20.938338 H          1 MOL1         0.0783
      35    C11     15.803393   18.247497   20.012011 C.3        1 MOL1         0.1043
      36    H17     16.791889   18.698932   20.170583 H          1 MOL1         0.0783
      37    O9      14.785289   19.274943   19.924026 O.3        1 MOL1        -0.3740
      38    C12     15.824781   17.495985   18.664352 C.3        1 MOL1         0.0138
      39    H18     14.844247   17.032724   18.491758 H          1 MOL1         0.0794
      40    H19     16.571313   16.691673   18.709745 H          1 MOL1         0.0794
      41    O10     16.143735   18.400570   17.604798 O.3        1 MOL1        -0.5486
      42    H20     15.507509   19.144611   17.687032 H          1 MOL1         0.3769
      43    C13     18.337742   24.054571   21.344478 C.3        1 MOL1         0.2972
      44    H21     18.720025   25.081024   21.281823 H          1 MOL1         0.0751
      45    O11     19.406058   23.092666   21.464017 O.3        1 MOL1        -0.3740
      46    C14     17.406080   23.917701   22.574899 C.3        1 MOL1         0.1003
      47    H22     16.581997   24.630646   22.441923 H          1 MOL1         0.0783
      48    O12     18.102657   24.223753   23.791095 O.3        1 MOL1        -0.5519
      49    H23     17.485471   23.948729   24.505850 H          1 MOL1         0.3769
      50    C15     16.797133   22.499377   22.658121 C.3        1 MOL1         0.1053
      51    H24     17.606324   21.796082   22.893049 H          1 MOL1         0.0783
      52    O13     15.804622   22.463098   23.691035 O.3        1 MOL1        -0.5519
      53    H25     15.348652   21.588112   23.615143 H          1 MOL1         0.3769
      54    C16     16.158448   22.075421   21.312606 C.3        1 MOL1         0.1018
      55    H26     15.204642   22.606208   21.194380 H          1 MOL1         0.0783
      56    C17     17.077122   22.369700   20.094840 C.3        1 MOL1         0.1043
      57    H27     17.922477   21.669104   20.116753 H          1 MOL1         0.0783
      58    O14     17.565932   23.731810   20.168500 O.3        1 MOL1        -0.3740
      59    C18     16.364103   22.204016   18.734978 C.3        1 MOL1         0.0138
      60    H28     16.054395   21.158215   18.618031 H          1 MOL1         0.0794
      61    H29     17.080244   22.423768   17.932007 H          1 MOL1         0.0794
      62    O15     15.229452   23.070043   18.638311 O.3        1 MOL1        -0.5486
      63    H30     15.566105   23.979529   18.799373 H          1 MOL1         0.3769
      64    C19     23.518272   22.653721   21.064178 C.3        1 MOL1         0.2972
      65    H31     24.587677   22.793187   20.860433 H          1 MOL1         0.0751
      66    O16     23.210575   21.269378   21.321845 O.3        1 MOL1        -0.3740
      67    C20     23.065705   23.525625   22.268309 C.3        1 MOL1         0.1003
      68    H32     23.254585   24.572130   21.997195 H          1 MOL1         0.0783
      69    O17     23.827124   23.210690   23.444881 O.3        1 MOL1        -0.5519
      70    H33     23.579302   22.289883   23.710138 H          1 MOL1         0.3769
      71    C21     21.540992   23.371443   22.516542 C.3        1 MOL1         0.1053
      72    H34     21.355105   22.348294   22.868236 H          1 MOL1         0.0783
      73    O18     21.088105   24.316400   23.494791 O.3        1 MOL1        -0.5519
      74    H35     20.115347   24.172656   23.600535 H          1 MOL1         0.3769
      75    C22     20.734630   23.590630   21.211617 C.3        1 MOL1         0.1018
      76    H36     20.735286   24.663269   20.977181 H          1 MOL1         0.0783
      77    C23     21.318286   22.813398   20.002032 C.3        1 MOL1         0.1043
      78    H37     21.124087   21.742195   20.145089 H          1 MOL1         0.0783
      79    O19     22.744879   23.056441   19.915006 O.3        1 MOL1        -0.3740
      80    C24     20.696381   23.232059   18.651264 C.3        1 MOL1         0.0138
      81    H38     19.618876   23.026483   18.670754 H          1 MOL1         0.0794
      82    H39     21.133064   22.612886   17.856386 H          1 MOL1         0.0794
      83    O20     20.930303   24.618227   18.384148 O.3        1 MOL1        -0.5486
      84    H40     21.902829   24.746665   18.448702 H          1 MOL1         0.3769
      85    C25     24.927938   17.609898   22.149364 C.3        1 MOL1         0.2972
      86    H41     25.565793   16.763013   22.432219 H          1 MOL1         0.0751
      87    O21     23.744584   17.177282   21.445813 O.3        1 MOL1        -0.3740
      88    C26     24.501841   18.410576   23.406442 C.3        1 MOL1         0.1003
      89    H42     25.414603   18.818212   23.859532 H          1 MOL1         0.0783
      90    O22     23.857978   17.546894   24.358282 O.3        1 MOL1        -0.5519
      91    H43     22.961953   17.931484   24.556546 H          1 MOL1         0.3769
      92    C27     23.600761   19.604719   23.001032 C.3        1 MOL1         0.1053
      93    H44     22.664907   19.198354   22.599882 H          1 MOL1         0.0783
      94    O23     23.316665   20.424155   24.141604 O.3        1 MOL1        -0.5519
      95    H45     22.613003   19.932081   24.640901 H          1 MOL1         0.3769
      96    C28     24.261172   20.464777   21.893344 C.3        1 MOL1         0.1018
      97    H46     25.046771   21.080254   22.351154 H          1 MOL1         0.0783
      98    C29     24.862739   19.608932   20.741516 C.3        1 MOL1         0.1043
      99    H47     24.032723   19.207476   20.144636 H          1 MOL1         0.0783
     100    O24     25.645736   18.515769   21.284680 O.3        1 MOL1        -0.3740
     101    C30     25.774750   20.409344   19.785034 C.3        1 MOL1         0.0138
     102    H48     25.171172   21.161304   19.259871 H          1 MOL1         0.0794
     103    H49     26.174700   19.725286   19.024616 H          1 MOL1         0.0794
     104    O25     26.843759   21.041604   20.494862 O.3        1 MOL1        -0.5486
     105    H50     27.328219   20.323721   20.960143 H          1 MOL1         0.3769
     106    C31     21.505536   13.815910   20.625781 C.3        1 MOL1         0.2972
     107    H51     21.103052   12.846207   20.308153 H          1 MOL1         0.0751
     108    O26     20.445881   14.764287   20.883863 O.3        1 MOL1        -0.3740
     109    C32     22.423309   13.654333   21.867053 C.3        1 MOL1         0.1003
     110    H52     23.269305   13.027647   21.557017 H          1 MOL1         0.0783
     111    O27     21.738480   12.990049   22.939415 O.3        1 MOL1        -0.5519
     112    H53     21.128678   13.660333   23.337128 H          1 MOL1         0.3769
     113    C33     22.996710   15.028665   22.305288 C.3        1 MOL1         0.1053
     114    H54     22.166914   15.642586   22.681776 H          1 MOL1         0.0783
     115    O28     23.972565   14.842242   23.337203 O.3        1 MOL1        -0.5519
     116    H55     24.001493   15.693631   23.838709 H          1 MOL1         0.3769
     117    C34     23.646627   15.780290   21.107879 C.3        1 MOL1         0.1018
     118    H56     24.634365   15.350267   20.894864 H          1 MOL1         0.0783
     119    C35     22.793077   15.723644   19.812377 C.3        1 MOL1         0.1043
     120    H57     21.940217   16.405982   19.922760 H          1 MOL1         0.0783
     121    O29     22.330667   14.369249   19.581014 O.3        1 MOL1        -0.3740
     122    C36     23.602904   16.158727   18.573285 C.3        1 MOL1         0.0138
     123    H58     24.424343   15.448315   18.410228 H          1 MOL1         0.0794
     124    H59     24.046347   17.146130   18.758421 H          1 MOL1         0.0794
     125    O30     22.752440   16.213204   17.426599 O.3        1 MOL1        -0.5486
     126    H60     22.253801   15.365611   17.418256 H          1 MOL1         0.3769
     127    C1      20.165299   18.504204   24.465880 C.2        1 MOL1         0.6075
     128    O1      21.318337   18.618184   24.836782 O.co2      1 MOL1        -0.6830
     129    O2      19.463246   17.549664   24.741948 O.co2      1 MOL1        -0.6830
     130    C2      19.567499   19.630282   23.624507 C.3        1 MOL1        -0.2050
     131    H1      20.302476   20.438877   23.549598 H          1 MOL1         0.0710
     132    H2      18.714789   20.029096   24.185481 H          1 MOL1         0.0710
     133    C3      19.096994   19.211499   22.206670 C.3        1 MOL1        -0.1947
     134    H3      18.368402   18.397660   22.292770 H          1 MOL1         0.0712
     135    H4      18.570434   20.054745   21.747220 H          1 MOL1         0.0712
     136    C4      20.250258   18.787791   21.274208 C.3        1 MOL1        -0.1921
     137    H5      20.792991   17.936755   21.708444 H          1 MOL1         0.0712
     138    H6      20.965501   19.613958   21.179312 H          1 MOL1         0.0712
     139    C5      19.729501   18.407348   19.874209 C.3        1 MOL1        -0.2936
     140    H7      20.561543   18.151901   19.206192 H          1 MOL1         0.0724
     141    H8      19.176042   19.239388   19.420426 H          1 MOL1         0.0724
     142    H9      19.060389   17.539624   19.930291 H          1 MOL1         0.0724
@<TRIPOS>BOND
    1     1     2    1
    2     1     3    1
    3     1     4    1
    4     4     5    1
    5     4     6    1
    6     6     7    1
    7     4     8    1
    8     8     9    1
    9     8    10    1
   10    10    11    1
   11     8    12    1
   12    12    13    1
   13    12    14    1
   14    14    15    1
   15     1    16    1
   16    14    16    1
   17    14    17    1
   18    17    18    1
   19    17    19    1
   20    17    20    1
   21    20    21    1
   22    22    23    1
   23    22    24    1
   24    22    25    1
   25    25    26    1
   26    25    27    1
   27    27    28    1
   28    25    29    1
   29    29    30    1
   30    29    31    1
   31    31    32    1
   32     3    33    1
   33    29    33    1
   34    33    34    1
   35    33    35    1
   36    35    36    1
   37    22    37    1
   38    35    37    1
   39    35    38    1
   40    38    39    1
   41    38    40    1
   42    38    41    1
   43    41    42    1
   44    43    44    1
   45    43    45    1
   46    43    46    1
   47    46    47    1
   48    46    48    1
   49    48    49    1
   50    46    50    1
   51    50    51    1
   52    50    52    1
   53    52    53    1
   54    24    54    1
   55    50    54    1
   56    54    55    1
   57    54    56    1
   58    56    57    1
   59    43    58    1
   60    56    58    1
   61    56    59    1
   62    59    60    1
   63    59    61    1
   64    59    62    1
   65    62    63    1
   66    64    65    1
   67    64    66    1
   68    64    67    1
   69    67    68    1
   70    67    69    1
   71    69    70    1
   72    67    71    1
   73    71    72    1
   74    71    73    1
   75    73    74    1
   76    45    75    1
   77    71    75    1
   78    75    76    1
   79    75    77    1
   80    77    78    1
   81    64    79    1
   82    77    79    1
   83    77    80    1
   84    80    81    1
   85    80    82    1
   86    80    83    1
   87    83    84    1
   88    85    86    1
   89    85    87    1
   90    85    88    1
   91    88    89    1
   92    88    90    1
   93    90    91    1
   94    88    92    1
   95    92    93    1
   96    92    94    1
   97    94    95    1
   98    66    96    1
   99    92    96    1
  100    96    97    1
  101    96    98    1
  102    98    99    1
  103    85   100    1
  104    98   100    1
  105    98   101    1
  106   101   102    1
  107   101   103    1
  108   101   104    1
  109   104   105    1
  110   106   107    1
  111    12   108    1
  112   106   108    1
  113   106   109    1
  114   109   110    1
  115   109   111    1
  116   111   112    1
  117   109   113    1
  118   113   114    1
  119   113   115    1
  120   115   116    1
  121    87   117    1
  122   113   117    1
  123   117   118    1
  124   117   119    1
  125   119   120    1
  126   106   121    1
  127   119   121    1
  128   119   122    1
  129   122   123    1
  130   122   124    1
  131   122   125    1
  132   125   126    1
  133   127   128    1
  134   127   129    2
  135   127   130    1
  136   130   131    1
  137   130   132    1
  138   130   133    1
  139   133   134    1
  140   133   135    1
  141   133   136    1
  142   136   137    1
  143   136   138    1
  144   136   139    1
  145   139   140    1
  146   139   141    1
  147   139   142    1
@<TRIPOS>SUBSTRUCTURE
       1 MOL1            1 RESIDUE      1      MOL     
       2 MOL1          142 RESIDUE      1      MOL     
@<SCITEGIC>MOL_PROPERTY
VM2 Rank
SciTegic.value.IntegerValue
7

@<SCITEGIC>MOL_PROPERTY
Conf_Id
SciTegic.value.IntegerValue
23767

@<SCITEGIC>MOL_PROPERTY
Probability
SciTegic.value.DoubleValue
1.08

@<SCITEGIC>MOL_PROPERTY
Sum Probability
SciTegic.value.DoubleValue
9.85

@<SCITEGIC>MOL_PROPERTY
Delta G
SciTegic.value.DoubleValue
0.404

@<SCITEGIC>MOL_PROPERTY
G
SciTegic.value.DoubleValue
481.674

@<SCITEGIC>MOL_PROPERTY
E
SciTegic.value.DoubleValue
297.106

@<SCITEGIC>MOL_PROPERTY
-TS
SciTegic.value.DoubleValue
184.568

@<SCITEGIC>MOL_PROPERTY
U+W
SciTegic.value.DoubleValue
171.912

@<SCITEGIC>MOL_PROPERTY
U
SciTegic.value.DoubleValue
235.527

@<SCITEGIC>MOL_PROPERTY
W
SciTegic.value.DoubleValue
-63.616

@<SCITEGIC>MOL_PROPERTY
W(PB)
SciTegic.value.DoubleValue
-69.599

@<SCITEGIC>MOL_PROPERTY
W(SA)
SciTegic.value.DoubleValue
5.984

@<SCITEGIC>MOL_PROPERTY
Valence
SciTegic.value.DoubleValue
151.378

@<SCITEGIC>MOL_PROPERTY
Coulomb
SciTegic.value.DoubleValue
105.105

@<SCITEGIC>MOL_PROPERTY
VdW
SciTegic.value.DoubleValue
-20.956

@<SCITEGIC>MOL_PROPERTY
VdW6
SciTegic.value.DoubleValue
-180.065

@<SCITEGIC>MOL_PROPERTY
VdW12
SciTegic.value.DoubleValue
159.109

@<SCITEGIC>MOL_PROPERTY
Bond
SciTegic.value.DoubleValue
5.041

@<SCITEGIC>MOL_PROPERTY
Angle
SciTegic.value.DoubleValue
12.088

@<SCITEGIC>MOL_PROPERTY
Pdih
SciTegic.value.DoubleValue
134.248

@<SCITEGIC>MOL_PROPERTY
Idih
SciTegic.value.DoubleValue
0.000

@<SCITEGIC>MOL_PROPERTY
Tether
SciTegic.value.DoubleValue
0.000

@<TRIPOS>MOLECULE
CD_guest-s18_vm2_single.mol2 : vm2 host+ligand conformer 8
         142         147           2
SMALL
USER_CHARGES
 
@<TRIPOS>ATOM
       1    C1      16.452675   15.237088   21.944422 C.3        1 MOL1         0.2972
       2    H1      15.421369   15.081031   22.284891 H          1 MOL1         0.0751
       3    O1      16.625968   16.544126   21.358463 O.3        1 MOL1        -0.3740
       4    C2      17.441026   15.078620   23.129230 C.3        1 MOL1         0.1003
       5    H2      17.336172   14.052477   23.504164 H          1 MOL1         0.0783
       6    O2      17.109525   15.992516   24.187772 O.3        1 MOL1        -0.5519
       7    H3      17.932111   16.509814   24.402264 H          1 MOL1         0.3769
       8    C3      18.904826   15.255485   22.649765 C.3        1 MOL1         0.1053
       9    H4      19.041605   16.295780   22.329134 H          1 MOL1         0.0783
      10    O3      19.811954   14.956548   23.718534 O.3        1 MOL1        -0.5519
      11    H5      19.835288   15.780115   24.275859 H          1 MOL1         0.3769
      12    C4      19.215066   14.347367   21.434346 C.3        1 MOL1         0.1018
      13    H6      19.324599   13.312506   21.783343 H          1 MOL1         0.0783
      14    C5      18.111577   14.418665   20.341993 C.3        1 MOL1         0.1043
      15    H7      18.173174   15.400138   19.854212 H          1 MOL1         0.0783
      16    O4      16.803821   14.254656   20.946121 O.3        1 MOL1        -0.3740
      17    C6      18.261158   13.343492   19.242697 C.3        1 MOL1         0.0138
      18    H8      19.192181   13.524869   18.689615 H          1 MOL1         0.0794
      19    H9      17.432837   13.450620   18.529597 H          1 MOL1         0.0794
      20    O5      18.267695   12.026712   19.801748 O.3        1 MOL1        -0.5486
      21    H10     17.428234   11.937359   20.305583 H          1 MOL1         0.3769
      22    C7      14.641739   20.192262   21.097370 C.3        1 MOL1         0.2972
      23    H11     13.921798   21.001567   20.922639 H          1 MOL1         0.0751
      24    O6      15.955760   20.696299   21.404542 O.3        1 MOL1        -0.3740
      25    C8      14.183107   19.306049   22.281254 C.3        1 MOL1         0.1003
      26    H12     13.205489   18.883406   22.015343 H          1 MOL1         0.0783
      27    O7      14.054110   20.075188   23.485816 O.3        1 MOL1        -0.5519
      28    H13     13.908677   19.405998   24.191807 H          1 MOL1         0.3769
      29    C9      15.164865   18.131048   22.510588 C.3        1 MOL1         0.1053
      30    H14     16.113166   18.550329   22.873284 H          1 MOL1         0.0783
      31    O8      14.611814   17.258310   23.502647 O.3        1 MOL1        -0.5519
      32    H15     15.378237   16.754172   23.873599 H          1 MOL1         0.3769
      33    C10     15.446737   17.356828   21.189882 C.3        1 MOL1         0.1018
      34    H16     14.575316   16.742003   20.928474 H          1 MOL1         0.0783
      35    C11     15.754510   18.310261   20.004113 C.3        1 MOL1         0.1043
      36    H17     16.746725   18.757117   20.152833 H          1 MOL1         0.0783
      37    O9      14.738447   19.341082   19.936454 O.3        1 MOL1        -0.3740
      38    C12     15.755335   17.567533   18.651702 C.3        1 MOL1         0.0138
      39    H18     14.767788   17.117191   18.484734 H          1 MOL1         0.0794
      40    H19     16.492250   16.754293   18.686904 H          1 MOL1         0.0794
      41    O10     16.077172   18.473156   17.594172 O.3        1 MOL1        -0.5486
      42    H20     15.445919   19.221077   17.679607 H          1 MOL1         0.3769
      43    C13     18.354271   24.070468   21.334466 C.3        1 MOL1         0.2972
      44    H21     18.748673   25.091977   21.266532 H          1 MOL1         0.0751
      45    O11     19.411855   23.096393   21.456171 O.3        1 MOL1        -0.3740
      46    C14     17.421448   23.951304   22.566205 C.3        1 MOL1         0.1003
      47    H22     16.606242   24.673798   22.430116 H          1 MOL1         0.0783
      48    O12     18.121991   24.254289   23.780772 O.3        1 MOL1        -0.5519
      49    H23     17.501568   23.990626   24.497003 H          1 MOL1         0.3769
      50    C15     16.794916   22.541282   22.656602 C.3        1 MOL1         0.1053
      51    H24     17.596322   21.829936   22.893482 H          1 MOL1         0.0783
      52    O13     15.803277   22.519490   23.690912 O.3        1 MOL1        -0.5519
      53    H25     15.344832   21.645038   23.624617 H          1 MOL1         0.3769
      54    C16     16.149379   22.118739   21.314093 C.3        1 MOL1         0.1018
      55    H26     15.201309   22.659373   21.194438 H          1 MOL1         0.0783
      56    C17     17.069990   22.396569   20.093583 C.3        1 MOL1         0.1043
      57    H27     17.906425   21.685571   20.116269 H          1 MOL1         0.0783
      58    O14     17.576857   23.752402   20.160916 O.3        1 MOL1        -0.3740
      59    C18     16.352755   22.235517   18.735481 C.3        1 MOL1         0.0138
      60    H28     16.028214   21.193848   18.623224 H          1 MOL1         0.0794
      61    H29     17.070788   22.441893   17.930648 H          1 MOL1         0.0794
      62    O15     15.230320   23.117080   18.636865 O.3        1 MOL1        -0.5486
      63    H30     15.579929   24.022242   18.794645 H          1 MOL1         0.3769
      64    C19     23.525821   22.624718   21.057417 C.3        1 MOL1         0.2972
      65    H31     24.595744   22.759779   20.853507 H          1 MOL1         0.0751
      66    O16     23.213746   21.240622   21.312162 O.3        1 MOL1        -0.3740
      67    C20     23.076075   23.501179   22.259940 C.3        1 MOL1         0.1003
      68    H32     23.267017   24.546132   21.984291 H          1 MOL1         0.0783
      69    O17     23.837614   23.191903   23.437660 O.3        1 MOL1        -0.5519
      70    H33     23.570650   22.281690   23.720405 H          1 MOL1         0.3769
      71    C21     21.550978   23.352674   22.509606 C.3        1 MOL1         0.1053
      72    H34     21.359614   22.329503   22.859271 H          1 MOL1         0.0783
      73    O18     21.104050   24.298906   23.489354 O.3        1 MOL1        -0.5519
      74    H35     20.129537   24.164883   23.591532 H          1 MOL1         0.3769
      75    C22     20.746611   23.579609   21.204917 C.3        1 MOL1         0.1018
      76    H36     20.758750   24.652191   20.970568 H          1 MOL1         0.0783
      77    C23     21.325248   22.797337   19.995945 C.3        1 MOL1         0.1043
      78    H37     21.124329   21.727738   20.139811 H          1 MOL1         0.0783
      79    O19     22.753822   23.030899   19.908126 O.3        1 MOL1        -0.3740
      80    C24     20.705271   23.218438   18.645097 C.3        1 MOL1         0.0138
      81    H38     19.626446   23.019744   18.665627 H          1 MOL1         0.0794
      82    H39     21.137450   22.595525   17.850674 H          1 MOL1         0.0794
      83    O20     20.947904   24.602798   18.376327 O.3        1 MOL1        -0.5486
      84    H40     21.921317   24.724971   18.439525 H          1 MOL1         0.3769
      85    C25     24.862445   17.574117   22.226588 C.3        1 MOL1         0.2972
      86    H41     25.470212   16.714820   22.537012 H          1 MOL1         0.0751
      87    O21     23.684842   17.163915   21.500881 O.3        1 MOL1        -0.3740
      88    C26     24.440186   18.407779   23.463374 C.3        1 MOL1         0.1003
      89    H42     25.357750   18.816856   23.905060 H          1 MOL1         0.0783
      90    O22     23.791617   17.582135   24.443323 O.3        1 MOL1        -0.5519
      91    H43     22.848762   17.884203   24.522907 H          1 MOL1         0.3769
      92    C27     23.554742   19.600653   23.025795 C.3        1 MOL1         0.1053
      93    H44     22.624988   19.194219   22.610881 H          1 MOL1         0.0783
      94    O23     23.249949   20.434469   24.150287 O.3        1 MOL1        -0.5519
      95    H45     22.555148   19.933663   24.653599 H          1 MOL1         0.3769
      96    C28     24.246351   20.437987   21.919641 C.3        1 MOL1         0.1018
      97    H46     25.026715   21.054789   22.384351 H          1 MOL1         0.0783
      98    C29     24.867094   19.559063   20.794217 C.3        1 MOL1         0.1043
      99    H47     24.046075   19.167831   20.178825 H          1 MOL1         0.0783
     100    O24     25.617000   18.454012   21.364397 O.3        1 MOL1        -0.3740
     101    C30     25.816344   20.336387   19.855390 C.3        1 MOL1         0.0138
     102    H48     25.239557   21.096236   19.311788 H          1 MOL1         0.0794
     103    H49     26.221755   19.640394   19.108822 H          1 MOL1         0.0794
     104    O25     26.879376   20.953050   20.587401 O.3        1 MOL1        -0.5486
     105    H50     27.338050   20.229396   21.069605 H          1 MOL1         0.3769
     106    C31     21.447970   13.897033   20.493926 C.3        1 MOL1         0.2972
     107    H51     21.004401   12.962636   20.127006 H          1 MOL1         0.0751
     108    O26     20.431103   14.854970   20.851578 O.3        1 MOL1        -0.3740
     109    C32     22.394052   13.630366   21.694473 C.3        1 MOL1         0.1003
     110    H52     23.189427   12.970271   21.324699 H          1 MOL1         0.0783
     111    O27     21.720355   12.972738   22.778591 O.3        1 MOL1        -0.5519
     112    H53     21.057808   13.618772   23.133032 H          1 MOL1         0.3769
     113    C33     23.063396   14.935092   22.192297 C.3        1 MOL1         0.1053
     114    H54     22.301220   15.533845   22.711081 H          1 MOL1         0.0783
     115    O28     24.112311   14.580838   23.099791 O.3        1 MOL1        -0.5519
     116    H55     23.686047   14.031544   23.792449 H          1 MOL1         0.3769
     117    C34     23.640851   15.800788   21.036647 C.3        1 MOL1         0.1018
     118    H56     24.640593   15.436511   20.765180 H          1 MOL1         0.0783
     119    C35     22.754707   15.824744   19.761563 C.3        1 MOL1         0.1043
     120    H57     21.916771   16.513777   19.929333 H          1 MOL1         0.0783
     121    O29     22.261074   14.494646   19.464688 O.3        1 MOL1        -0.3740
     122    C36     23.541635   16.315827   18.528919 C.3        1 MOL1         0.0138
     123    H58     24.341840   15.598836   18.301610 H          1 MOL1         0.0794
     124    H59     24.012649   17.280092   18.760161 H          1 MOL1         0.0794
     125    O30     22.663514   16.457487   17.410987 O.3        1 MOL1        -0.5486
     126    H60     22.148239   15.621420   17.363404 H          1 MOL1         0.3769
     127    C1      20.079795   18.499013   24.439306 C.2        1 MOL1         0.6075
     128    O1      21.229744   18.621515   24.815260 O.co2      1 MOL1        -0.6830
     129    O2      19.388107   17.532246   24.699456 O.co2      1 MOL1        -0.6830
     130    C2      19.472720   19.632189   23.614975 C.3        1 MOL1        -0.2050
     131    H1      20.191855   20.457647   23.571777 H          1 MOL1         0.0710
     132    H2      18.602251   19.999873   24.169939 H          1 MOL1         0.0710
     133    C3      19.036007   19.237348   22.180108 C.3        1 MOL1        -0.1947
     134    H3      18.314544   18.415297   22.235394 H          1 MOL1         0.0712
     135    H4      18.511231   20.084656   21.727518 H          1 MOL1         0.0712
     136    C4      20.209846   18.842314   21.261648 C.3        1 MOL1        -0.1921
     137    H5      20.741850   17.977088   21.681098 H          1 MOL1         0.0712
     138    H6      20.927536   19.669809   21.210268 H          1 MOL1         0.0712
     139    C5      19.719664   18.508101   19.838831 C.3        1 MOL1        -0.2936
     140    H7      20.565835   18.271024   19.181773 H          1 MOL1         0.0724
     141    H8      19.178631   19.355880   19.399497 H          1 MOL1         0.0724
     142    H9      19.046909   17.641659   19.852932 H          1 MOL1         0.0724
@<TRIPOS>BOND
    1     1     2    1
    2     1     3    1
    3     1     4    1
    4     4     5    1
    5     4     6    1
    6     6     7    1
    7     4     8    1
    8     8     9    1
    9     8    10    1
   10    10    11    1
   11     8    12    1
   12    12    13    1
   13    12    14    1
   14    14    15    1
   15     1    16    1
   16    14    16    1
   17    14    17    1
   18    17    18    1
   19    17    19    1
   20    17    20    1
   21    20    21    1
   22    22    23    1
   23    22    24    1
   24    22    25    1
   25    25    26    1
   26    25    27    1
   27    27    28    1
   28    25    29    1
   29    29    30    1
   30    29    31    1
   31    31    32    1
   32     3    33    1
   33    29    33    1
   34    33    34    1
   35    33    35    1
   36    35    36    1
   37    22    37    1
   38    35    37    1
   39    35    38    1
   40    38    39    1
   41    38    40    1
   42    38    41    1
   43    41    42    1
   44    43    44    1
   45    43    45    1
   46    43    46    1
   47    46    47    1
   48    46    48    1
   49    48    49    1
   50    46    50    1
   51    50    51    1
   52    50    52    1
   53    52    53    1
   54    24    54    1
   55    50    54    1
   56    54    55    1
   57    54    56    1
   58    56    57    1
   59    43    58    1
   60    56    58    1
   61    56    59    1
   62    59    60    1
   63    59    61    1
   64    59    62    1
   65    62    63    1
   66    64    65    1
   67    64    66    1
   68    64    67    1
   69    67    68    1
   70    67    69    1
   71    69    70    1
   72    67    71    1
   73    71    72    1
   74    71    73    1
   75    73    74    1
   76    45    75    1
   77    71    75    1
   78    75    76    1
   79    75    77    1
   80    77    78    1
   81    64    79    1
   82    77    79    1
   83    77    80    1
   84    80    81    1
   85    80    82    1
   86    80    83    1
   87    83    84    1
   88    85    86    1
   89    85    87    1
   90    85    88    1
   91    88    89    1
   92    88    90    1
   93    90    91    1
   94    88    92    1
   95    92    93    1
   96    92    94    1
   97    94    95    1
   98    66    96    1
   99    92    96    1
  100    96    97    1
  101    96    98    1
  102    98    99    1
  103    85   100    1
  104    98   100    1
  105    98   101    1
  106   101   102    1
  107   101   103    1
  108   101   104    1
  109   104   105    1
  110   106   107    1
  111    12   108    1
  112   106   108    1
  113   106   109    1
  114   109   110    1
  115   109   111    1
  116   111   112    1
  117   109   113    1
  118   113   114    1
  119   113   115    1
  120   115   116    1
  121    87   117    1
  122   113   117    1
  123   117   118    1
  124   117   119    1
  125   119   120    1
  126   106   121    1
  127   119   121    1
  128   119   122    1
  129   122   123    1
  130   122   124    1
  131   122   125    1
  132   125   126    1
  133   127   128    1
  134   127   129    2
  135   127   130    1
  136   130   131    1
  137   130   132    1
  138   130   133    1
  139   133   134    1
  140   133   135    1
  141   133   136    1
  142   136   137    1
  143   136   138    1
  144   136   139    1
  145   139   140    1
  146   139   141    1
  147   139   142    1
@<TRIPOS>SUBSTRUCTURE
       1 MOL1            1 RESIDUE      1      MOL     
       2 MOL1          142 RESIDUE      1      MOL     
@<SCITEGIC>MOL_PROPERTY
VM2 Rank
SciTegic.value.IntegerValue
8

@<SCITEGIC>MOL_PROPERTY
Conf_Id
SciTegic.value.IntegerValue
21991

@<SCITEGIC>MOL_PROPERTY
Probability
SciTegic.value.DoubleValue
0.98

@<SCITEGIC>MOL_PROPERTY
Sum Probability
SciTegic.value.DoubleValue
10.83

@<SCITEGIC>MOL_PROPERTY
Delta G
SciTegic.value.DoubleValue
0.463

@<SCITEGIC>MOL_PROPERTY
G
SciTegic.value.DoubleValue
481.733

@<SCITEGIC>MOL_PROPERTY
E
SciTegic.value.DoubleValue
298.118

@<SCITEGIC>MOL_PROPERTY
-TS
SciTegic.value.DoubleValue
183.614

@<SCITEGIC>MOL_PROPERTY
U+W
SciTegic.value.DoubleValue
172.924

@<SCITEGIC>MOL_PROPERTY
U
SciTegic.value.DoubleValue
237.259

@<SCITEGIC>MOL_PROPERTY
W
SciTegic.value.DoubleValue
-64.335

@<SCITEGIC>MOL_PROPERTY
W(PB)
SciTegic.value.DoubleValue
-70.360

@<SCITEGIC>MOL_PROPERTY
W(SA)
SciTegic.value.DoubleValue
6.025

@<SCITEGIC>MOL_PROPERTY
Valence
SciTegic.value.DoubleValue
150.728

@<SCITEGIC>MOL_PROPERTY
Coulomb
SciTegic.value.DoubleValue
108.626

@<SCITEGIC>MOL_PROPERTY
VdW
SciTegic.value.DoubleValue
-22.095

@<SCITEGIC>MOL_PROPERTY
VdW6
SciTegic.value.DoubleValue
-179.358

@<SCITEGIC>MOL_PROPERTY
VdW12
SciTegic.value.DoubleValue
157.263

@<SCITEGIC>MOL_PROPERTY
Bond
SciTegic.value.DoubleValue
4.922

@<SCITEGIC>MOL_PROPERTY
Angle
SciTegic.value.DoubleValue
12.447

@<SCITEGIC>MOL_PROPERTY
Pdih
SciTegic.value.DoubleValue
133.358

@<SCITEGIC>MOL_PROPERTY
Idih
SciTegic.value.DoubleValue
0.001

@<SCITEGIC>MOL_PROPERTY
Tether
SciTegic.value.DoubleValue
0.000

