@<TRIPOS>MOLECULE
CD_guest-7_vm2_single.mol2 : vm2 host+ligand conformer 1
         145         150           2
SMALL
USER_CHARGES
 
@<TRIPOS>ATOM
       1    C1      16.356682   15.232101   21.759736 C.3        1 MOL1         0.2972
       2    H1      15.297693   15.083813   22.006050 H          1 MOL1         0.0751
       3    O1      16.607995   16.566949   21.273193 O.3        1 MOL1        -0.3740
       4    C2      17.240152   14.963298   23.003663 C.3        1 MOL1         0.1003
       5    H2      17.088156   13.913845   23.287877 H          1 MOL1         0.0783
       6    O2      16.880657   15.797632   24.111817 O.3        1 MOL1        -0.5519
       7    H3      17.640168   15.716275   24.732705 H          1 MOL1         0.3769
       8    C3      18.736794   15.144385   22.668220 C.3        1 MOL1         0.1053
       9    H4      18.917844   16.202276   22.434554 H          1 MOL1         0.0783
      10    O3      19.510241   14.749990   23.806934 O.3        1 MOL1        -0.5519
      11    H5      20.350652   14.366178   23.461470 H          1 MOL1         0.3769
      12    C4      19.139001   14.302506   21.430998 C.3        1 MOL1         0.1018
      13    H6      19.212159   13.247810   21.729004 H          1 MOL1         0.0783
      14    C5      18.129914   14.456225   20.256872 C.3        1 MOL1         0.1043
      15    H7      18.255099   15.458434   19.826963 H          1 MOL1         0.0783
      16    O4      16.769051   14.300874   20.735602 O.3        1 MOL1        -0.3740
      17    C6      18.350687   13.431955   19.121725 C.3        1 MOL1         0.0138
      18    H8      19.334725   13.608241   18.667270 H          1 MOL1         0.0794
      19    H9      17.596220   13.601130   18.341828 H          1 MOL1         0.0794
      20    O5      18.266527   12.090507   19.611728 O.3        1 MOL1        -0.5486
      21    H10     17.380960   12.005582   20.030190 H          1 MOL1         0.3769
      22    C7      14.674896   20.247167   21.002565 C.3        1 MOL1         0.2972
      23    H11     13.968542   21.063986   20.807074 H          1 MOL1         0.0751
      24    O6      15.973334   20.738759   21.384119 O.3        1 MOL1        -0.3740
      25    C8      14.156332   19.334100   22.140953 C.3        1 MOL1         0.1003
      26    H12     13.190816   18.923562   21.817950 H          1 MOL1         0.0783
      27    O7      13.973483   20.069725   23.359041 O.3        1 MOL1        -0.5519
      28    H13     13.778927   19.382696   24.035608 H          1 MOL1         0.3769
      29    C9      15.121652   18.148839   22.385601 C.3        1 MOL1         0.1053
      30    H14     16.057777   18.550861   22.798097 H          1 MOL1         0.0783
      31    O8      14.519725   17.254856   23.328893 O.3        1 MOL1        -0.5519
      32    H15     15.261192   16.714545   23.699704 H          1 MOL1         0.3769
      33    C10     15.455399   17.406783   21.060294 C.3        1 MOL1         0.1018
      34    H16     14.586938   16.816707   20.738577 H          1 MOL1         0.0783
      35    C11     15.834496   18.386940   19.918485 C.3        1 MOL1         0.1043
      36    H17     16.819753   18.822425   20.131000 H          1 MOL1         0.0783
      37    O9      14.830209   19.426972   19.825523 O.3        1 MOL1        -0.3740
      38    C12     15.899052   17.679721   18.548683 C.3        1 MOL1         0.0138
      39    H18     14.911839   17.262515   18.309367 H          1 MOL1         0.0794
      40    H19     16.610083   16.844932   18.605177 H          1 MOL1         0.0794
      41    O10     16.309852   18.603861   17.539324 O.3        1 MOL1        -0.5486
      42    H20     15.712504   19.378838   17.625090 H          1 MOL1         0.3769
      43    C13     18.337596   24.095741   21.598818 C.3        1 MOL1         0.2972
      44    H21     18.764001   25.105716   21.646044 H          1 MOL1         0.0751
      45    O11     19.362383   23.087819   21.480407 O.3        1 MOL1        -0.3740
      46    C14     17.503652   23.817509   22.873087 C.3        1 MOL1         0.1003
      47    H22     16.687888   24.551687   22.897784 H          1 MOL1         0.0783
      48    O12     18.299230   23.958074   24.058126 O.3        1 MOL1        -0.5519
      49    H23     17.743007   23.579602   24.775690 H          1 MOL1         0.3769
      50    C15     16.872064   22.408533   22.820860 C.3        1 MOL1         0.1053
      51    H24     17.680820   21.671335   22.895255 H          1 MOL1         0.0783
      52    O13     15.963598   22.248823   23.917220 O.3        1 MOL1        -0.5519
      53    H25     15.442676   21.428113   23.734732 H          1 MOL1         0.3769
      54    C16     16.119681   22.165515   21.489527 C.3        1 MOL1         0.1018
      55    H26     15.150304   22.679024   21.538486 H          1 MOL1         0.0783
      56    C17     16.912825   22.643039   20.240673 C.3        1 MOL1         0.1043
      57    H27     17.732846   21.934441   20.063980 H          1 MOL1         0.0783
      58    O14     17.452398   23.969668   20.466284 O.3        1 MOL1        -0.3740
      59    C18     16.058183   22.699040   18.955268 C.3        1 MOL1         0.0138
      60    H28     15.717587   21.686091   18.705733 H          1 MOL1         0.0794
      61    H29     16.690621   23.044133   18.126352 H          1 MOL1         0.0794
      62    O15     14.936035   23.571110   19.119409 O.3        1 MOL1        -0.5486
      63    H30     15.304612   24.445547   19.376549 H          1 MOL1         0.3769
      64    C19     23.452310   22.617474   20.921094 C.3        1 MOL1         0.2972
      65    H31     24.509458   22.745316   20.655526 H          1 MOL1         0.0751
      66    O16     23.162908   21.253341   21.282503 O.3        1 MOL1        -0.3740
      67    C20     23.059154   23.560249   22.091951 C.3        1 MOL1         0.1003
      68    H32     23.238993   24.588332   21.752830 H          1 MOL1         0.0783
      69    O17     23.875507   23.305499   23.246419 O.3        1 MOL1        -0.5519
      70    H33     23.664326   22.388805   23.554382 H          1 MOL1         0.3769
      71    C21     21.547600   23.431414   22.423318 C.3        1 MOL1         0.1053
      72    H34     21.377731   22.434593   22.851431 H          1 MOL1         0.0783
      73    O18     21.148487   24.438907   23.361498 O.3        1 MOL1        -0.5519
      74    H35     20.220393   24.224305   23.627525 H          1 MOL1         0.3769
      75    C22     20.678523   23.566033   21.145657 C.3        1 MOL1         0.1018
      76    H36     20.663668   24.617447   20.829191 H          1 MOL1         0.0783
      77    C23     21.201853   22.703656   19.968065 C.3        1 MOL1         0.1043
      78    H37     21.019556   21.645505   20.198905 H          1 MOL1         0.0783
      79    O19     22.620096   22.943283   19.789418 O.3        1 MOL1        -0.3740
      80    C24     20.505733   23.023826   18.626506 C.3        1 MOL1         0.0138
      81    H38     19.427964   22.845302   18.727561 H          1 MOL1         0.0794
      82    H39     20.882903   22.332536   17.861153 H          1 MOL1         0.0794
      83    O20     20.745473   24.378229   18.232469 O.3        1 MOL1        -0.5486
      84    H40     21.721518   24.495197   18.247068 H          1 MOL1         0.3769
      85    C25     24.928483   17.627128   22.082163 C.3        1 MOL1         0.2972
      86    H41     25.574034   16.779076   22.343455 H          1 MOL1         0.0751
      87    O21     23.703496   17.192612   21.454864 O.3        1 MOL1        -0.3740
      88    C26     24.579271   18.447519   23.350251 C.3        1 MOL1         0.1003
      89    H42     25.518658   18.844514   23.756096 H          1 MOL1         0.0783
      90    O22     23.967953   17.593375   24.331623 O.3        1 MOL1        -0.5519
      91    H43     23.373440   18.151897   24.897287 H          1 MOL1         0.3769
      92    C27     23.675158   19.653613   22.985626 C.3        1 MOL1         0.1053
      93    H44     22.696186   19.261995   22.682155 H          1 MOL1         0.0783
      94    O23     23.529187   20.527530   24.113498 O.3        1 MOL1        -0.5519
      95    H45     22.929261   20.067493   24.757557 H          1 MOL1         0.3769
      96    C28     24.256082   20.472970   21.803104 C.3        1 MOL1         0.1018
      97    H46     25.064825   21.108743   22.187141 H          1 MOL1         0.0783
      98    C29     24.789191   19.589921   20.638713 C.3        1 MOL1         0.1043
      99    H47     23.926208   19.175595   20.100773 H          1 MOL1         0.0783
     100    O24     25.602248   18.512104   21.164118 O.3        1 MOL1        -0.3740
     101    C30     25.644934   20.361811   19.609430 C.3        1 MOL1         0.0138
     102    H48     25.011394   21.095569   19.094086 H          1 MOL1         0.0794
     103    H49     26.004794   19.654394   18.850270 H          1 MOL1         0.0794
     104    O25     26.749556   21.017438   20.238904 O.3        1 MOL1        -0.5486
     105    H50     27.260399   20.315041   20.699564 H          1 MOL1         0.3769
     106    C31     21.431927   13.856306   20.661141 C.3        1 MOL1         0.2972
     107    H51     21.003699   12.893083   20.355147 H          1 MOL1         0.0751
     108    O26     20.402855   14.819959   20.972228 O.3        1 MOL1        -0.3740
     109    C32     22.378292   13.690086   21.878100 C.3        1 MOL1         0.1003
     110    H52     23.217294   13.060293   21.554291 H          1 MOL1         0.0783
     111    O27     21.726582   13.060236   22.987228 O.3        1 MOL1        -0.5519
     112    H53     22.389446   13.087832   23.714163 H          1 MOL1         0.3769
     113    C33     22.953201   15.060035   22.307362 C.3        1 MOL1         0.1053
     114    H54     22.122921   15.678701   22.675797 H          1 MOL1         0.0783
     115    O28     23.908270   14.862943   23.356321 O.3        1 MOL1        -0.5519
     116    H55     24.007994   15.742474   23.799325 H          1 MOL1         0.3769
     117    C34     23.607157   15.798821   21.107340 C.3        1 MOL1         0.1018
     118    H56     24.594111   15.365657   20.897541 H          1 MOL1         0.0783
     119    C35     22.744501   15.739778   19.814646 C.3        1 MOL1         0.1043
     120    H57     21.904376   16.435269   19.927880 H          1 MOL1         0.0783
     121    O29     22.235227   14.400068   19.593821 O.3        1 MOL1        -0.3740
     122    C36     23.528697   16.159792   18.552159 C.3        1 MOL1         0.0138
     123    H58     23.910099   17.180156   18.689947 H          1 MOL1         0.0794
     124    H59     22.838141   16.178116   17.698492 H          1 MOL1         0.0794
     125    O30     24.610317   15.259027   18.295814 O.3        1 MOL1        -0.5486
     126    H60     24.213465   14.359834   18.268326 H          1 MOL1         0.3769
     127    C1      20.710567   18.663807   25.547315 C.2        1 MOL1         0.6115
     128    O1      19.917695   18.678175   26.467908 O.co2      1 MOL1        -0.6776
     129    O2      21.893730   18.923615   25.667904 O.co2      1 MOL1        -0.6776
     130    C2      20.193426   18.332121   24.151532 C.3        1 MOL1        -0.2013
     131    H1      19.322303   17.676948   24.263439 H          1 MOL1         0.0727
     132    H2      20.969374   17.755821   23.636574 H          1 MOL1         0.0727
     133    C3      19.804446   19.593367   23.336831 C.3        1 MOL1        -0.1910
     134    H3      19.044528   20.146851   23.903698 H          1 MOL1         0.0729
     135    H4      20.669782   20.261815   23.250624 H          1 MOL1         0.0729
     136    C4      19.249030   19.276822   21.928077 C.3        1 MOL1        -0.1909
     137    H5      18.864819   20.204847   21.486243 H          1 MOL1         0.0729
     138    H6      18.393629   18.595398   22.017485 H          1 MOL1         0.0729
     139    C5      20.301732   18.673033   20.973210 C.3        1 MOL1        -0.1884
     140    H7      21.170550   19.340238   20.910959 H          1 MOL1         0.0729
     141    H8      20.660932   17.715186   21.368889 H          1 MOL1         0.0729
     142    C6      19.726099   18.455719   19.559999 C.3        1 MOL1        -0.2899
     143    H9      18.902819   17.731881   19.583520 H          1 MOL1         0.0741
     144    H10     19.344249   19.395680   19.141131 H          1 MOL1         0.0741
     145    H11     20.496333   18.070350   18.880809 H          1 MOL1         0.0741
@<TRIPOS>BOND
    1     1     2    1
    2     1     3    1
    3     1     4    1
    4     4     5    1
    5     4     6    1
    6     6     7    1
    7     4     8    1
    8     8     9    1
    9     8    10    1
   10    10    11    1
   11     8    12    1
   12    12    13    1
   13    12    14    1
   14    14    15    1
   15     1    16    1
   16    14    16    1
   17    14    17    1
   18    17    18    1
   19    17    19    1
   20    17    20    1
   21    20    21    1
   22    22    23    1
   23    22    24    1
   24    22    25    1
   25    25    26    1
   26    25    27    1
   27    27    28    1
   28    25    29    1
   29    29    30    1
   30    29    31    1
   31    31    32    1
   32     3    33    1
   33    29    33    1
   34    33    34    1
   35    33    35    1
   36    35    36    1
   37    22    37    1
   38    35    37    1
   39    35    38    1
   40    38    39    1
   41    38    40    1
   42    38    41    1
   43    41    42    1
   44    43    44    1
   45    43    45    1
   46    43    46    1
   47    46    47    1
   48    46    48    1
   49    48    49    1
   50    46    50    1
   51    50    51    1
   52    50    52    1
   53    52    53    1
   54    24    54    1
   55    50    54    1
   56    54    55    1
   57    54    56    1
   58    56    57    1
   59    43    58    1
   60    56    58    1
   61    56    59    1
   62    59    60    1
   63    59    61    1
   64    59    62    1
   65    62    63    1
   66    64    65    1
   67    64    66    1
   68    64    67    1
   69    67    68    1
   70    67    69    1
   71    69    70    1
   72    67    71    1
   73    71    72    1
   74    71    73    1
   75    73    74    1
   76    45    75    1
   77    71    75    1
   78    75    76    1
   79    75    77    1
   80    77    78    1
   81    64    79    1
   82    77    79    1
   83    77    80    1
   84    80    81    1
   85    80    82    1
   86    80    83    1
   87    83    84    1
   88    85    86    1
   89    85    87    1
   90    85    88    1
   91    88    89    1
   92    88    90    1
   93    90    91    1
   94    88    92    1
   95    92    93    1
   96    92    94    1
   97    94    95    1
   98    66    96    1
   99    92    96    1
  100    96    97    1
  101    96    98    1
  102    98    99    1
  103    85   100    1
  104    98   100    1
  105    98   101    1
  106   101   102    1
  107   101   103    1
  108   101   104    1
  109   104   105    1
  110   106   107    1
  111    12   108    1
  112   106   108    1
  113   106   109    1
  114   109   110    1
  115   109   111    1
  116   111   112    1
  117   109   113    1
  118   113   114    1
  119   113   115    1
  120   115   116    1
  121    87   117    1
  122   113   117    1
  123   117   118    1
  124   117   119    1
  125   119   120    1
  126   106   121    1
  127   119   121    1
  128   119   122    1
  129   122   123    1
  130   122   124    1
  131   122   125    1
  132   125   126    1
  133   127   128    1
  134   127   129    2
  135   127   130    1
  136   130   131    1
  137   130   132    1
  138   130   133    1
  139   133   134    1
  140   133   135    1
  141   133   136    1
  142   136   137    1
  143   136   138    1
  144   136   139    1
  145   139   140    1
  146   139   141    1
  147   139   142    1
  148   142   143    1
  149   142   144    1
  150   142   145    1
@<TRIPOS>SUBSTRUCTURE
       1 MOL1            1 RESIDUE      1      MOL     
       2 MOL1          145 RESIDUE      1      MOL     
@<SCITEGIC>MOL_PROPERTY
VM2 Rank
SciTegic.value.IntegerValue
1

@<SCITEGIC>MOL_PROPERTY
Conf_Id
SciTegic.value.IntegerValue
22570

@<SCITEGIC>MOL_PROPERTY
Probability
SciTegic.value.DoubleValue
5.13

@<SCITEGIC>MOL_PROPERTY
Sum Probability
SciTegic.value.DoubleValue
5.13

@<SCITEGIC>MOL_PROPERTY
Delta G
SciTegic.value.DoubleValue
0.000

@<SCITEGIC>MOL_PROPERTY
G
SciTegic.value.DoubleValue
489.175

@<SCITEGIC>MOL_PROPERTY
E
SciTegic.value.DoubleValue
301.847

@<SCITEGIC>MOL_PROPERTY
-TS
SciTegic.value.DoubleValue
187.328

@<SCITEGIC>MOL_PROPERTY
U+W
SciTegic.value.DoubleValue
173.970

@<SCITEGIC>MOL_PROPERTY
U
SciTegic.value.DoubleValue
249.508

@<SCITEGIC>MOL_PROPERTY
W
SciTegic.value.DoubleValue
-75.538

@<SCITEGIC>MOL_PROPERTY
W(PB)
SciTegic.value.DoubleValue
-81.654

@<SCITEGIC>MOL_PROPERTY
W(SA)
SciTegic.value.DoubleValue
6.116

@<SCITEGIC>MOL_PROPERTY
Valence
SciTegic.value.DoubleValue
149.210

@<SCITEGIC>MOL_PROPERTY
Coulomb
SciTegic.value.DoubleValue
124.554

@<SCITEGIC>MOL_PROPERTY
VdW
SciTegic.value.DoubleValue
-24.256

@<SCITEGIC>MOL_PROPERTY
VdW6
SciTegic.value.DoubleValue
-178.463

@<SCITEGIC>MOL_PROPERTY
VdW12
SciTegic.value.DoubleValue
154.207

@<SCITEGIC>MOL_PROPERTY
Bond
SciTegic.value.DoubleValue
4.554

@<SCITEGIC>MOL_PROPERTY
Angle
SciTegic.value.DoubleValue
11.716

@<SCITEGIC>MOL_PROPERTY
Pdih
SciTegic.value.DoubleValue
132.939

@<SCITEGIC>MOL_PROPERTY
Idih
SciTegic.value.DoubleValue
0.001

@<SCITEGIC>MOL_PROPERTY
Tether
SciTegic.value.DoubleValue
0.000

