@<TRIPOS>MOLECULE
CD_guest-s12_vm2_single.mol2 : vm2 host+ligand conformer 1
         152         157           2
SMALL
USER_CHARGES
 
@<TRIPOS>ATOM
       1    C1      16.124005   15.062347   20.205877 C.3        1 MOL1         0.2972
       2    H1      15.078690   14.964190   19.885826 H          1 MOL1         0.0751
       3    O1      16.427466   16.413046   20.621224 O.3        1 MOL1        -0.3740
       4    C2      16.468160   14.056071   21.333291 C.3        1 MOL1         0.1003
       5    H2      16.393222   13.051215   20.897210 H          1 MOL1         0.0783
       6    O2      15.559920   14.138095   22.440732 O.3        1 MOL1        -0.5519
       7    H3      15.723808   15.010613   22.878907 H          1 MOL1         0.3769
       8    C3      17.928965   14.261225   21.799476 C.3        1 MOL1         0.1053
       9    H4      18.001485   15.255947   22.258834 H          1 MOL1         0.0783
      10    O3      18.240238   13.253953   22.769206 O.3        1 MOL1        -0.5519
      11    H5      17.415159   13.143526   23.295084 H          1 MOL1         0.3769
      12    C4      18.925268   14.214592   20.602075 C.3        1 MOL1         0.1018
      13    H6      19.102716   13.169423   20.315846 H          1 MOL1         0.0783
      14    C5      18.418264   14.996124   19.355039 C.3        1 MOL1         0.1043
      15    H7      18.570080   16.068102   19.526819 H          1 MOL1         0.0783
      16    O4      17.011230   14.733516   19.116321 O.3        1 MOL1        -0.3740
      17    C6      19.194189   14.610711   18.079234 C.3        1 MOL1         0.0138
      18    H8      18.982090   13.563020   17.827196 H          1 MOL1         0.0794
      19    H9      20.272067   14.697629   18.271910 H          1 MOL1         0.0794
      20    O5      18.821445   15.473673   17.003139 O.3        1 MOL1        -0.5486
      21    H10     17.839440   15.447677   16.959989 H          1 MOL1         0.3769
      22    C7      15.029881   19.950285   22.194391 C.3        1 MOL1         0.2972
      23    H11     14.454380   20.768298   22.646349 H          1 MOL1         0.0751
      24    O6      16.268047   20.425003   21.626432 O.3        1 MOL1        -0.3740
      25    C8      15.345614   18.873238   23.260341 C.3        1 MOL1         0.1003
      26    H12     14.383605   18.508098   23.642966 H          1 MOL1         0.0783
      27    O7      16.109261   19.420455   24.349068 O.3        1 MOL1        -0.5519
      28    H13     16.000047   20.401692   24.313393 H          1 MOL1         0.3769
      29    C9      16.100532   17.677432   22.635901 C.3        1 MOL1         0.1053
      30    H14     17.101247   18.018550   22.352374 H          1 MOL1         0.0783
      31    O8      16.210138   16.650632   23.623908 O.3        1 MOL1        -0.5519
      32    H15     16.504752   17.120689   24.436584 H          1 MOL1         0.3769
      33    C10     15.417470   17.141859   21.349502 C.3        1 MOL1         0.1018
      34    H16     14.565495   16.507839   21.628019 H          1 MOL1         0.0783
      35    C11     14.945799   18.281804   20.403268 C.3        1 MOL1         0.1043
      36    H17     15.832013   18.708313   19.915646 H          1 MOL1         0.0783
      37    O9      14.261105   19.317950   21.149800 O.3        1 MOL1        -0.3740
      38    C12     13.994070   17.791876   19.289639 C.3        1 MOL1         0.0138
      39    H18     14.530359   17.079213   18.649007 H          1 MOL1         0.0794
      40    H19     13.713240   18.648526   18.662388 H          1 MOL1         0.0794
      41    O10     12.826575   17.176502   19.841350 O.3        1 MOL1        -0.5486
      42    H20     12.412689   17.848034   20.428261 H          1 MOL1         0.3769
      43    C13     18.388515   24.023491   21.421648 C.3        1 MOL1         0.2972
      44    H21     18.659567   25.078155   21.286973 H          1 MOL1         0.0751
      45    O11     19.549752   23.191133   21.607953 O.3        1 MOL1        -0.3740
      46    C14     17.489623   23.865054   22.673053 C.3        1 MOL1         0.1003
      47    H22     16.601819   24.492782   22.521822 H          1 MOL1         0.0783
      48    O12     18.180226   24.300830   23.855493 O.3        1 MOL1        -0.5519
      49    H23     19.148625   24.176260   23.693841 H          1 MOL1         0.3769
      50    C15     17.015533   22.401411   22.838054 C.3        1 MOL1         0.1053
      51    H24     17.893407   21.791849   23.080180 H          1 MOL1         0.0783
      52    O13     16.074240   22.339906   23.914723 O.3        1 MOL1        -0.5519
      53    H25     16.438352   22.947299   24.598144 H          1 MOL1         0.3769
      54    C16     16.397642   21.856966   21.520334 C.3        1 MOL1         0.1018
      55    H26     15.424287   22.333438   21.341682 H          1 MOL1         0.0783
      56    C17     17.311958   22.132312   20.299223 C.3        1 MOL1         0.1043
      57    H27     18.214690   21.513748   20.381223 H          1 MOL1         0.0783
      58    O14     17.657338   23.538834   20.275775 O.3        1 MOL1        -0.3740
      59    C18     16.611920   21.800006   18.964636 C.3        1 MOL1         0.0138
      60    H28     15.800782   22.519575   18.790192 H          1 MOL1         0.0794
      61    H29     16.160751   20.801932   19.029947 H          1 MOL1         0.0794
      62    O15     17.553576   21.829435   17.890582 O.3        1 MOL1        -0.5486
      63    H30     17.973132   22.716522   17.904256 H          1 MOL1         0.3769
      64    C19     23.640596   22.987231   21.131044 C.3        1 MOL1         0.2972
      65    H31     24.707859   23.142829   20.927466 H          1 MOL1         0.0751
      66    O16     23.332530   21.603706   21.401514 O.3        1 MOL1        -0.3740
      67    C20     23.180916   23.822802   22.351181 C.3        1 MOL1         0.1003
      68    H32     23.314653   24.883087   22.100251 H          1 MOL1         0.0783
      69    O17     23.956361   23.511118   23.519056 O.3        1 MOL1        -0.5519
      70    H33     24.037111   22.524751   23.569915 H          1 MOL1         0.3769
      71    C21     21.678295   23.574342   22.616503 C.3        1 MOL1         0.1053
      72    H34     21.571147   22.526134   22.915916 H          1 MOL1         0.0783
      73    O18     21.218432   24.424636   23.671334 O.3        1 MOL1        -0.5519
      74    H35     21.941027   24.415163   24.338229 H          1 MOL1         0.3769
      75    C22     20.827310   23.802244   21.341318 C.3        1 MOL1         0.1018
      76    H36     20.743146   24.883118   21.167145 H          1 MOL1         0.0783
      77    C23     21.432269   23.125102   20.078474 C.3        1 MOL1         0.1043
      78    H37     21.271467   22.041805   20.138169 H          1 MOL1         0.0783
      79    O19     22.849758   23.415110   20.003546 O.3        1 MOL1        -0.3740
      80    C24     20.795904   23.634564   18.769825 C.3        1 MOL1         0.0138
      81    H38     20.994996   24.709191   18.662058 H          1 MOL1         0.0794
      82    H39     19.710055   23.498251   18.816471 H          1 MOL1         0.0794
      83    O20     21.324252   22.911224   17.657267 O.3        1 MOL1        -0.5486
      84    H40     22.301350   22.993631   17.719625 H          1 MOL1         0.3769
      85    C25     24.956342   17.797562   21.406881 C.3        1 MOL1         0.2972
      86    H41     25.607430   16.914750   21.364532 H          1 MOL1         0.0751
      87    O21     23.562369   17.426944   21.320577 O.3        1 MOL1        -0.3740
      88    C26     25.209013   18.615446   22.703354 C.3        1 MOL1         0.1003
      89    H42     26.248362   18.966778   22.664077 H          1 MOL1         0.0783
      90    O22     25.037132   17.825017   23.888513 O.3        1 MOL1        -0.5519
      91    H43     24.085269   17.553298   23.917010 H          1 MOL1         0.3769
      92    C27     24.289692   19.858595   22.739283 C.3        1 MOL1         0.1053
      93    H44     23.249943   19.514487   22.807936 H          1 MOL1         0.0783
      94    O23     24.609069   20.658528   23.881882 O.3        1 MOL1        -0.5519
      95    H45     24.726900   20.017857   24.618411 H          1 MOL1         0.3769
      96    C28     24.447306   20.696352   21.446219 C.3        1 MOL1         0.1018
      97    H46     25.408106   21.225853   21.493397 H          1 MOL1         0.0783
      98    C29     24.385457   19.828089   20.158412 C.3        1 MOL1         0.1043
      99    H47     23.348358   19.499125   20.011801 H          1 MOL1         0.0783
     100    O24     25.247896   18.671337   20.295498 O.3        1 MOL1        -0.3740
     101    C30     24.820614   20.590317   18.887043 C.3        1 MOL1         0.0138
     102    H48     24.120038   21.415779   18.706313 H          1 MOL1         0.0794
     103    H49     24.752757   19.910768   18.027019 H          1 MOL1         0.0794
     104    O25     26.153226   21.094263   19.017954 O.3        1 MOL1        -0.5486
     105    H50     26.724357   20.315851   19.203100 H          1 MOL1         0.3769
     106    C31     21.043872   14.140237   21.864046 C.3        1 MOL1         0.2972
     107    H51     20.632346   13.160106   22.134672 H          1 MOL1         0.0751
     108    O26     20.159553   14.863786   20.982006 O.3        1 MOL1        -0.3740
     109    C32     21.310732   14.993445   23.135328 C.3        1 MOL1         0.1003
     110    H52     22.026111   14.435162   23.753262 H          1 MOL1         0.0783
     111    O27     20.116285   15.227396   23.898381 O.3        1 MOL1        -0.5519
     112    H53     19.509132   14.469204   23.725933 H          1 MOL1         0.3769
     113    C33     21.953105   16.346283   22.758029 C.3        1 MOL1         0.1053
     114    H54     21.219750   16.911352   22.173324 H          1 MOL1         0.0783
     115    O28     22.271251   17.057563   23.957724 O.3        1 MOL1        -0.5519
     116    H55     21.488491   16.914187   24.536238 H          1 MOL1         0.3769
     117    C34     23.211795   16.144207   21.880437 C.3        1 MOL1         0.1018
     118    H56     24.015504   15.738222   22.509060 H          1 MOL1         0.0783
     119    C35     22.935478   15.178000   20.694916 C.3        1 MOL1         0.1043
     120    H57     22.265494   15.681553   19.985081 H          1 MOL1         0.0783
     121    O29     22.306278   13.966793   21.183612 O.3        1 MOL1        -0.3740
     122    C36     24.212460   14.768069   19.927515 C.3        1 MOL1         0.0138
     123    H58     24.644337   15.658043   19.450650 H          1 MOL1         0.0794
     124    H59     23.934683   14.070857   19.125732 H          1 MOL1         0.0794
     125    O30     25.170486   14.163924   20.801638 O.3        1 MOL1        -0.5486
     126    H60     24.721882   13.390047   21.209529 H          1 MOL1         0.3769
     127    N1      19.936134   21.002504   26.585692 N.4        1 MOL1        -0.4857
     128    H1      20.947904   20.853352   26.717467 H          1 MOL1         0.3650
     129    H2      19.504686   20.743698   27.486390 H          1 MOL1         0.3650
     130    C1      19.409598   20.089655   25.491594 C.3        1 MOL1         0.0209
     131    H3      18.346355   20.306654   25.357278 H          1 MOL1         0.0967
     132    H4      19.502564   19.059804   25.845631 H          1 MOL1         0.0967
     133    C2      20.143729   20.227820   24.144604 C.3        1 MOL1        -0.1378
     134    H5      20.085141   21.268364   23.810177 H          1 MOL1         0.0993
     135    H6      21.206439   19.979574   24.268239 H          1 MOL1         0.0993
     136    C3      19.508317   19.325888   23.069972 C.3        1 MOL1        -0.1338
     137    H7      18.447434   19.582694   22.985454 H          1 MOL1         0.0993
     138    H8      19.557167   18.274225   23.385502 H          1 MOL1         0.0993
     139    C4      20.178605   19.498513   21.690752 C.3        1 MOL1        -0.1338
     140    H9      20.158358   20.556336   21.404618 H          1 MOL1         0.0993
     141    H10     21.235511   19.209220   21.753526 H          1 MOL1         0.0993
     142    C5      19.469572   18.660459   20.605364 C.3        1 MOL1        -0.1313
     143    H11     18.431110   19.000519   20.489959 H          1 MOL1         0.0993
     144    H12     19.421248   17.611014   20.923907 H          1 MOL1         0.0993
     145    C6      20.193194   18.754138   19.246149 C.3        1 MOL1        -0.2328
     146    H13     19.670601   18.157032   18.487016 H          1 MOL1         0.1004
     147    H14     21.221321   18.376876   19.320874 H          1 MOL1         0.1004
     148    H15     20.230834   19.792292   18.889018 H          1 MOL1         0.1004
     149    C7      19.640200   22.465651   26.272113 C.3        1 MOL1        -0.0781
     150    H16     18.564440   22.594188   26.133286 H          1 MOL1         0.0978
     151    H17     19.981677   23.086046   27.103464 H          1 MOL1         0.0978
     152    H18     20.165686   22.755728   25.360049 H          1 MOL1         0.0978
@<TRIPOS>BOND
    1     1     2    1
    2     1     3    1
    3     1     4    1
    4     4     5    1
    5     4     6    1
    6     6     7    1
    7     4     8    1
    8     8     9    1
    9     8    10    1
   10    10    11    1
   11     8    12    1
   12    12    13    1
   13    12    14    1
   14    14    15    1
   15     1    16    1
   16    14    16    1
   17    14    17    1
   18    17    18    1
   19    17    19    1
   20    17    20    1
   21    20    21    1
   22    22    23    1
   23    22    24    1
   24    22    25    1
   25    25    26    1
   26    25    27    1
   27    27    28    1
   28    25    29    1
   29    29    30    1
   30    29    31    1
   31    31    32    1
   32     3    33    1
   33    29    33    1
   34    33    34    1
   35    33    35    1
   36    35    36    1
   37    22    37    1
   38    35    37    1
   39    35    38    1
   40    38    39    1
   41    38    40    1
   42    38    41    1
   43    41    42    1
   44    43    44    1
   45    43    45    1
   46    43    46    1
   47    46    47    1
   48    46    48    1
   49    48    49    1
   50    46    50    1
   51    50    51    1
   52    50    52    1
   53    52    53    1
   54    24    54    1
   55    50    54    1
   56    54    55    1
   57    54    56    1
   58    56    57    1
   59    43    58    1
   60    56    58    1
   61    56    59    1
   62    59    60    1
   63    59    61    1
   64    59    62    1
   65    62    63    1
   66    64    65    1
   67    64    66    1
   68    64    67    1
   69    67    68    1
   70    67    69    1
   71    69    70    1
   72    67    71    1
   73    71    72    1
   74    71    73    1
   75    73    74    1
   76    45    75    1
   77    71    75    1
   78    75    76    1
   79    75    77    1
   80    77    78    1
   81    64    79    1
   82    77    79    1
   83    77    80    1
   84    80    81    1
   85    80    82    1
   86    80    83    1
   87    83    84    1
   88    85    86    1
   89    85    87    1
   90    85    88    1
   91    88    89    1
   92    88    90    1
   93    90    91    1
   94    88    92    1
   95    92    93    1
   96    92    94    1
   97    94    95    1
   98    66    96    1
   99    92    96    1
  100    96    97    1
  101    96    98    1
  102    98    99    1
  103    85   100    1
  104    98   100    1
  105    98   101    1
  106   101   102    1
  107   101   103    1
  108   101   104    1
  109   104   105    1
  110   106   107    1
  111    12   108    1
  112   106   108    1
  113   106   109    1
  114   109   110    1
  115   109   111    1
  116   111   112    1
  117   109   113    1
  118   113   114    1
  119   113   115    1
  120   115   116    1
  121    87   117    1
  122   113   117    1
  123   117   118    1
  124   117   119    1
  125   119   120    1
  126   106   121    1
  127   119   121    1
  128   119   122    1
  129   122   123    1
  130   122   124    1
  131   122   125    1
  132   125   126    1
  133   127   128    1
  134   127   129    1
  135   127   130    1
  136   130   131    1
  137   130   132    1
  138   130   133    1
  139   133   134    1
  140   133   135    1
  141   133   136    1
  142   136   137    1
  143   136   138    1
  144   136   139    1
  145   139   140    1
  146   139   141    1
  147   139   142    1
  148   142   143    1
  149   142   144    1
  150   142   145    1
  151   145   146    1
  152   145   147    1
  153   145   148    1
  154   127   149    1
  155   149   150    1
  156   149   151    1
  157   149   152    1
@<TRIPOS>SUBSTRUCTURE
       1 MOL1            1 RESIDUE      1      MOL     
       2 MOL1          152 RESIDUE      1      MOL     
@<SCITEGIC>MOL_PROPERTY
VM2 Rank
SciTegic.value.IntegerValue
1

@<SCITEGIC>MOL_PROPERTY
Conf_Id
SciTegic.value.IntegerValue
26065

@<SCITEGIC>MOL_PROPERTY
Probability
SciTegic.value.DoubleValue
2.17

@<SCITEGIC>MOL_PROPERTY
Sum Probability
SciTegic.value.DoubleValue
2.17

@<SCITEGIC>MOL_PROPERTY
Delta G
SciTegic.value.DoubleValue
0.000

@<SCITEGIC>MOL_PROPERTY
G
SciTegic.value.DoubleValue
595.974

@<SCITEGIC>MOL_PROPERTY
E
SciTegic.value.DoubleValue
393.331

@<SCITEGIC>MOL_PROPERTY
-TS
SciTegic.value.DoubleValue
202.642

@<SCITEGIC>MOL_PROPERTY
U+W
SciTegic.value.DoubleValue
259.195

@<SCITEGIC>MOL_PROPERTY
U
SciTegic.value.DoubleValue
337.534

@<SCITEGIC>MOL_PROPERTY
W
SciTegic.value.DoubleValue
-78.339

@<SCITEGIC>MOL_PROPERTY
W(PB)
SciTegic.value.DoubleValue
-84.455

@<SCITEGIC>MOL_PROPERTY
W(SA)
SciTegic.value.DoubleValue
6.116

@<SCITEGIC>MOL_PROPERTY
Valence
SciTegic.value.DoubleValue
146.736

@<SCITEGIC>MOL_PROPERTY
Coulomb
SciTegic.value.DoubleValue
218.462

@<SCITEGIC>MOL_PROPERTY
VdW
SciTegic.value.DoubleValue
-27.665

@<SCITEGIC>MOL_PROPERTY
VdW6
SciTegic.value.DoubleValue
-180.855

@<SCITEGIC>MOL_PROPERTY
VdW12
SciTegic.value.DoubleValue
153.190

@<SCITEGIC>MOL_PROPERTY
Bond
SciTegic.value.DoubleValue
4.461

@<SCITEGIC>MOL_PROPERTY
Angle
SciTegic.value.DoubleValue
10.272

@<SCITEGIC>MOL_PROPERTY
Pdih
SciTegic.value.DoubleValue
132.003

@<SCITEGIC>MOL_PROPERTY
Idih
SciTegic.value.DoubleValue
0.000

@<SCITEGIC>MOL_PROPERTY
Tether
SciTegic.value.DoubleValue
0.000

