@<TRIPOS>MOLECULE
CD_guest-2_vm2_single.mol2 : vm2 host+ligand conformer 1
         149         154           2
SMALL
USER_CHARGES
 
@<TRIPOS>ATOM
       1    C1      16.271364   15.072759   20.562837 C.3        1 MOL1         0.2972
       2    H1      15.212588   14.990250   20.284980 H          1 MOL1         0.0751
       3    O1      16.650980   16.447640   20.795086 O.3        1 MOL1        -0.3740
       4    C2      16.593481   14.207703   21.810553 C.3        1 MOL1         0.1003
       5    H2      16.419490   13.161165   21.528026 H          1 MOL1         0.0783
       6    O2      15.750974   14.528530   22.926869 O.3        1 MOL1        -0.5519
       7    H3      15.977365   15.453749   23.198278 H          1 MOL1         0.3769
       8    C3      18.083930   14.352753   22.198406 C.3        1 MOL1         0.1053
       9    H4      18.244557   15.383842   22.543377 H          1 MOL1         0.0783
      10    O3      18.384385   13.436560   23.255874 O.3        1 MOL1        -0.5519
      11    H5      17.606554   13.476307   23.857649 H          1 MOL1         0.3769
      12    C4      19.023219   14.099142   20.988357 C.3        1 MOL1         0.1018
      13    H6      19.137796   13.018824   20.827893 H          1 MOL1         0.0783
      14    C5      18.525695   14.755506   19.670681 C.3        1 MOL1         0.1043
      15    H7      18.744200   15.827624   19.723331 H          1 MOL1         0.0783
      16    O4      17.099597   14.565770   19.497015 O.3        1 MOL1        -0.3740
      17    C6      19.235451   14.195232   18.418484 C.3        1 MOL1         0.0138
      18    H8      20.317687   14.352759   18.519174 H          1 MOL1         0.0794
      19    H9      18.899003   14.759796   17.538879 H          1 MOL1         0.0794
      20    O5      18.954321   12.803167   18.249155 O.3        1 MOL1        -0.5486
      21    H10     17.974504   12.720816   18.245823 H          1 MOL1         0.3769
      22    C7      15.085090   20.184442   21.753135 C.3        1 MOL1         0.2972
      23    H11     14.433661   21.009984   22.066227 H          1 MOL1         0.0751
      24    O6      16.299354   20.668451   21.145018 O.3        1 MOL1        -0.3740
      25    C8      15.450740   19.292809   22.969600 C.3        1 MOL1         0.1003
      26    H12     14.507768   18.916609   23.387319 H          1 MOL1         0.0783
      27    O7      16.151674   20.032981   23.982184 O.3        1 MOL1        -0.5519
      28    H13     15.912437   20.983295   23.863733 H          1 MOL1         0.3769
      29    C9      16.301985   18.079273   22.531605 C.3        1 MOL1         0.1053
      30    H14     17.273269   18.454834   22.189697 H          1 MOL1         0.0783
      31    O8      16.486108   17.217183   23.657860 O.3        1 MOL1        -0.5519
      32    H15     16.728691   17.824835   24.392811 H          1 MOL1         0.3769
      33    C10     15.643738   17.312685   21.357533 C.3        1 MOL1         0.1018
      34    H16     14.784313   16.747446   21.741757 H          1 MOL1         0.0783
      35    C11     15.178775   18.270142   20.225687 C.3        1 MOL1         0.1043
      36    H17     16.069378   18.672713   19.724869 H          1 MOL1         0.0783
      37    O9      14.401605   19.356803   20.787266 O.3        1 MOL1        -0.3740
      38    C12     14.311531   17.574793   19.152560 C.3        1 MOL1         0.0138
      39    H18     14.919784   16.821474   18.634411 H          1 MOL1         0.0794
      40    H19     14.008876   18.320262   18.405028 H          1 MOL1         0.0794
      41    O10     13.159102   16.960258   19.736322 O.3        1 MOL1        -0.5486
      42    H20     12.671134   17.675639   20.201791 H          1 MOL1         0.3769
      43    C13     18.463427   24.199043   20.947441 C.3        1 MOL1         0.2972
      44    H21     18.847130   25.211123   20.764228 H          1 MOL1         0.0751
      45    O11     19.507740   23.292644   21.349694 O.3        1 MOL1        -0.3740
      46    C14     17.374031   24.200135   22.048342 C.3        1 MOL1         0.1003
      47    H22     16.544082   24.819079   21.683183 H          1 MOL1         0.0783
      48    O12     17.866093   24.757658   23.277183 O.3        1 MOL1        -0.5519
      49    H23     18.687882   24.261505   23.522671 H          1 MOL1         0.3769
      50    C15     16.833927   22.767104   22.281958 C.3        1 MOL1         0.1053
      51    H24     17.643771   22.166276   22.718958 H          1 MOL1         0.0783
      52    O13     15.737585   22.840721   23.200146 O.3        1 MOL1        -0.5519
      53    H25     16.010553   23.512880   23.865971 H          1 MOL1         0.3769
      54    C16     16.400141   22.094147   20.945676 C.3        1 MOL1         0.1018
      55    H26     15.443549   22.516885   20.610675 H          1 MOL1         0.0783
      56    C17     17.450605   22.283296   19.818619 C.3        1 MOL1         0.1043
      57    H27     18.318303   21.650645   20.039100 H          1 MOL1         0.0783
      58    O14     17.855778   23.671881   19.749565 O.3        1 MOL1        -0.3740
      59    C18     16.902669   21.876846   18.434536 C.3        1 MOL1         0.0138
      60    H28     16.132294   22.594573   18.122317 H          1 MOL1         0.0794
      61    H29     16.428015   20.889370   18.508383 H          1 MOL1         0.0794
      62    O15     17.967253   21.829706   17.482008 O.3        1 MOL1        -0.5486
      63    H30     18.395351   22.713367   17.503452 H          1 MOL1         0.3769
      64    C19     23.472110   22.833275   22.125815 C.3        1 MOL1         0.2972
      65    H31     24.544315   22.886541   22.355101 H          1 MOL1         0.0751
      66    O16     23.094497   21.529987   21.632453 O.3        1 MOL1        -0.3740
      67    C20     22.640384   23.156712   23.391585 C.3        1 MOL1         0.1003
      68    H32     22.877268   24.187999   23.684008 H          1 MOL1         0.0783
      69    O17     22.969518   22.271136   24.473677 O.3        1 MOL1        -0.5519
      70    H33     23.638089   21.628127   24.130755 H          1 MOL1         0.3769
      71    C21     21.128530   23.079363   23.084636 C.3        1 MOL1         0.1053
      72    H34     20.884662   22.025291   22.919423 H          1 MOL1         0.0783
      73    O18     20.386572   23.559169   24.209414 O.3        1 MOL1        -0.5519
      74    H35     20.804203   23.125568   24.987338 H          1 MOL1         0.3769
      75    C22     20.737432   23.877607   21.813232 C.3        1 MOL1         0.1018
      76    H36     20.615603   24.934156   22.087094 H          1 MOL1         0.0783
      77    C23     21.752951   23.737983   20.641911 C.3        1 MOL1         0.1043
      78    H37     21.585380   22.762955   20.166635 H          1 MOL1         0.0783
      79    O19     23.117539   23.809444   21.125635 O.3        1 MOL1        -0.3740
      80    C24     21.581136   24.816209   19.549182 C.3        1 MOL1         0.0138
      81    H38     20.593961   24.700163   19.082682 H          1 MOL1         0.0794
      82    H39     22.333090   24.648816   18.766405 H          1 MOL1         0.0794
      83    O20     21.717280   26.131247   20.095042 O.3        1 MOL1        -0.5486
      84    H40     22.604611   26.164322   20.517237 H          1 MOL1         0.3769
      85    C25     24.793343   17.809992   20.819701 C.3        1 MOL1         0.2972
      86    H41     25.455903   16.997108   20.495772 H          1 MOL1         0.0751
      87    O21     23.472287   17.320238   21.123798 O.3        1 MOL1        -0.3740
      88    C26     25.381888   18.550349   22.053140 C.3        1 MOL1         0.1003
      89    H42     26.355043   18.955780   21.746994 H          1 MOL1         0.0783
      90    O22     25.580433   17.669513   23.169222 O.3        1 MOL1        -0.5519
      91    H43     24.688762   17.323967   23.428141 H          1 MOL1         0.3769
      92    C27     24.482883   19.740794   22.465120 C.3        1 MOL1         0.1053
      93    H44     23.530789   19.335807   22.834823 H          1 MOL1         0.0783
      94    O23     25.131280   20.482700   23.503344 O.3        1 MOL1        -0.5519
      95    H45     25.513912   19.802250   24.102533 H          1 MOL1         0.3769
      96    C28     24.178601   20.660800   21.253963 C.3        1 MOL1         0.1018
      97    H46     25.078101   21.229724   20.982725 H          1 MOL1         0.0783
      98    C29     23.711587   19.854565   20.014221 C.3        1 MOL1         0.1043
      99    H47     22.710174   19.453111   20.210124 H          1 MOL1         0.0783
     100    O24     24.653307   18.781431   19.761867 O.3        1 MOL1        -0.3740
     101    C30     23.645448   20.718915   18.738343 C.3        1 MOL1         0.0138
     102    H48     24.658153   21.047568   18.469207 H          1 MOL1         0.0794
     103    H49     23.046075   21.615997   18.934985 H          1 MOL1         0.0794
     104    O25     23.060003   19.968069   17.672808 O.3        1 MOL1        -0.5486
     105    H50     23.586083   19.141881   17.603220 H          1 MOL1         0.3769
     106    C31     21.295914   13.903729   21.891158 C.3        1 MOL1         0.2972
     107    H51     20.913467   12.906002   22.142599 H          1 MOL1         0.0751
     108    O26     20.281847   14.731591   21.287096 O.3        1 MOL1        -0.3740
     109    C32     21.838397   14.614119   23.158065 C.3        1 MOL1         0.1003
     110    H52     22.677790   14.014840   23.534248 H          1 MOL1         0.0783
     111    O27     20.839964   14.720162   24.185263 O.3        1 MOL1        -0.5519
     112    H53     20.018763   14.287770   23.845320 H          1 MOL1         0.3769
     113    C33     22.372786   16.018007   22.800164 C.3        1 MOL1         0.1053
     114    H54     21.514710   16.627063   22.491386 H          1 MOL1         0.0783
     115    O28     22.988437   16.596284   23.955309 O.3        1 MOL1        -0.5519
     116    H55     22.359015   16.410364   24.688290 H          1 MOL1         0.3769
     117    C34     23.379239   15.971611   21.623651 C.3        1 MOL1         0.1018
     118    H56     24.342802   15.604725   22.001224 H          1 MOL1         0.0783
     119    C35     22.894736   15.071696   20.449710 C.3        1 MOL1         0.1043
     120    H57     22.090514   15.600381   19.921240 H          1 MOL1         0.0783
     121    O29     22.393273   13.808511   20.957812 O.3        1 MOL1        -0.3740
     122    C36     23.997601   14.758481   19.414247 C.3        1 MOL1         0.0138
     123    H58     24.297778   15.690537   18.917604 H          1 MOL1         0.0794
     124    H59     23.579676   14.098482   18.642229 H          1 MOL1         0.0794
     125    O30     25.130448   14.142548   20.033161 O.3        1 MOL1        -0.5486
     126    H60     24.797303   13.327537   20.470531 H          1 MOL1         0.3769
     127    N1      20.151182   17.935456   15.571912 N.4        1 MOL1        -0.5940
     128    H1      21.077548   17.499712   15.616462 H          1 MOL1         0.3649
     129    H2      20.097647   18.429906   14.675261 H          1 MOL1         0.3649
     130    H3      19.457420   17.182397   15.540962 H          1 MOL1         0.3649
     131    C1      19.918437   18.873732   16.738309 C.3        1 MOL1         0.0207
     132    H4      18.934566   19.335886   16.615128 H          1 MOL1         0.0950
     133    H5      20.674808   19.662902   16.691964 H          1 MOL1         0.0950
     134    C2      19.995457   18.172004   18.105027 C.3        1 MOL1        -0.1415
     135    H6      19.251758   17.367671   18.146894 H          1 MOL1         0.0976
     136    H7      20.987272   17.715913   18.225571 H          1 MOL1         0.0976
     137    C3      19.742387   19.177106   19.245870 C.3        1 MOL1        -0.1375
     138    H8      18.721619   19.571628   19.159276 H          1 MOL1         0.0976
     139    H9      20.424056   20.031199   19.124592 H          1 MOL1         0.0976
     140    C4      19.938557   18.557536   20.647342 C.3        1 MOL1        -0.1375
     141    H10     19.182056   17.782960   20.828380 H          1 MOL1         0.0976
     142    H11     20.917237   18.064413   20.699361 H          1 MOL1         0.0976
     143    C5      19.849744   19.641098   21.741923 C.3        1 MOL1        -0.1350
     144    H12     18.854546   20.102797   21.729103 H          1 MOL1         0.0976
     145    H13     20.568484   20.437319   21.513286 H          1 MOL1         0.0976
     146    C6      20.132841   19.085611   23.152352 C.3        1 MOL1        -0.2365
     147    H14     19.482282   18.231902   23.383655 H          1 MOL1         0.0987
     148    H15     19.957876   19.857761   23.912772 H          1 MOL1         0.0987
     149    H16     21.176294   18.761017   23.244146 H          1 MOL1         0.0987
@<TRIPOS>BOND
    1     1     2    1
    2     1     3    1
    3     1     4    1
    4     4     5    1
    5     4     6    1
    6     6     7    1
    7     4     8    1
    8     8     9    1
    9     8    10    1
   10    10    11    1
   11     8    12    1
   12    12    13    1
   13    12    14    1
   14    14    15    1
   15     1    16    1
   16    14    16    1
   17    14    17    1
   18    17    18    1
   19    17    19    1
   20    17    20    1
   21    20    21    1
   22    22    23    1
   23    22    24    1
   24    22    25    1
   25    25    26    1
   26    25    27    1
   27    27    28    1
   28    25    29    1
   29    29    30    1
   30    29    31    1
   31    31    32    1
   32     3    33    1
   33    29    33    1
   34    33    34    1
   35    33    35    1
   36    35    36    1
   37    22    37    1
   38    35    37    1
   39    35    38    1
   40    38    39    1
   41    38    40    1
   42    38    41    1
   43    41    42    1
   44    43    44    1
   45    43    45    1
   46    43    46    1
   47    46    47    1
   48    46    48    1
   49    48    49    1
   50    46    50    1
   51    50    51    1
   52    50    52    1
   53    52    53    1
   54    24    54    1
   55    50    54    1
   56    54    55    1
   57    54    56    1
   58    56    57    1
   59    43    58    1
   60    56    58    1
   61    56    59    1
   62    59    60    1
   63    59    61    1
   64    59    62    1
   65    62    63    1
   66    64    65    1
   67    64    66    1
   68    64    67    1
   69    67    68    1
   70    67    69    1
   71    69    70    1
   72    67    71    1
   73    71    72    1
   74    71    73    1
   75    73    74    1
   76    45    75    1
   77    71    75    1
   78    75    76    1
   79    75    77    1
   80    77    78    1
   81    64    79    1
   82    77    79    1
   83    77    80    1
   84    80    81    1
   85    80    82    1
   86    80    83    1
   87    83    84    1
   88    85    86    1
   89    85    87    1
   90    85    88    1
   91    88    89    1
   92    88    90    1
   93    90    91    1
   94    88    92    1
   95    92    93    1
   96    92    94    1
   97    94    95    1
   98    66    96    1
   99    92    96    1
  100    96    97    1
  101    96    98    1
  102    98    99    1
  103    85   100    1
  104    98   100    1
  105    98   101    1
  106   101   102    1
  107   101   103    1
  108   101   104    1
  109   104   105    1
  110   106   107    1
  111    12   108    1
  112   106   108    1
  113   106   109    1
  114   109   110    1
  115   109   111    1
  116   111   112    1
  117   109   113    1
  118   113   114    1
  119   113   115    1
  120   115   116    1
  121    87   117    1
  122   113   117    1
  123   117   118    1
  124   117   119    1
  125   119   120    1
  126   106   121    1
  127   119   121    1
  128   119   122    1
  129   122   123    1
  130   122   124    1
  131   122   125    1
  132   125   126    1
  133   127   128    1
  134   127   129    1
  135   127   130    1
  136   127   131    1
  137   131   132    1
  138   131   133    1
  139   131   134    1
  140   134   135    1
  141   134   136    1
  142   134   137    1
  143   137   138    1
  144   137   139    1
  145   137   140    1
  146   140   141    1
  147   140   142    1
  148   140   143    1
  149   143   144    1
  150   143   145    1
  151   143   146    1
  152   146   147    1
  153   146   148    1
  154   146   149    1
@<TRIPOS>SUBSTRUCTURE
       1 MOL1            1 RESIDUE      1      MOL     
       2 MOL1          149 RESIDUE      1      MOL     
@<SCITEGIC>MOL_PROPERTY
VM2 Rank
SciTegic.value.IntegerValue
1

@<SCITEGIC>MOL_PROPERTY
Conf_Id
SciTegic.value.IntegerValue
16433

@<SCITEGIC>MOL_PROPERTY
Probability
SciTegic.value.DoubleValue
2.24

@<SCITEGIC>MOL_PROPERTY
Sum Probability
SciTegic.value.DoubleValue
2.24

@<SCITEGIC>MOL_PROPERTY
Delta G
SciTegic.value.DoubleValue
0.000

@<SCITEGIC>MOL_PROPERTY
G
SciTegic.value.DoubleValue
557.147

@<SCITEGIC>MOL_PROPERTY
E
SciTegic.value.DoubleValue
360.382

@<SCITEGIC>MOL_PROPERTY
-TS
SciTegic.value.DoubleValue
196.765

@<SCITEGIC>MOL_PROPERTY
U+W
SciTegic.value.DoubleValue
228.929

@<SCITEGIC>MOL_PROPERTY
U
SciTegic.value.DoubleValue
307.716

@<SCITEGIC>MOL_PROPERTY
W
SciTegic.value.DoubleValue
-78.788

@<SCITEGIC>MOL_PROPERTY
W(PB)
SciTegic.value.DoubleValue
-84.903

@<SCITEGIC>MOL_PROPERTY
W(SA)
SciTegic.value.DoubleValue
6.116

@<SCITEGIC>MOL_PROPERTY
Valence
SciTegic.value.DoubleValue
145.771

@<SCITEGIC>MOL_PROPERTY
Coulomb
SciTegic.value.DoubleValue
186.910

@<SCITEGIC>MOL_PROPERTY
VdW
SciTegic.value.DoubleValue
-24.965

@<SCITEGIC>MOL_PROPERTY
VdW6
SciTegic.value.DoubleValue
-174.327

@<SCITEGIC>MOL_PROPERTY
VdW12
SciTegic.value.DoubleValue
149.362

@<SCITEGIC>MOL_PROPERTY
Bond
SciTegic.value.DoubleValue
4.369

@<SCITEGIC>MOL_PROPERTY
Angle
SciTegic.value.DoubleValue
10.192

@<SCITEGIC>MOL_PROPERTY
Pdih
SciTegic.value.DoubleValue
131.211

@<SCITEGIC>MOL_PROPERTY
Idih
SciTegic.value.DoubleValue
0.000

@<SCITEGIC>MOL_PROPERTY
Tether
SciTegic.value.DoubleValue
0.000

