@<TRIPOS>MOLECULE
MOL
   20    19     1     0     0
SMALL
gas


@<TRIPOS>ATOM
      1 C1          20.8650    18.6510    18.3910 c2         1 MOL      -0.103076
      2 H1          21.4350    17.7710    18.6930 ha         1 MOL       0.053437
      3 H2          21.1450    19.1220    17.4480 ha         1 MOL       0.053437
      4 C2          19.8760    19.1320    19.1350 c2         1 MOL      -0.091744
      5 H3          19.3230    20.0140    18.8100 ha         1 MOL       0.056954
      6 C3          19.4370    18.5260    20.4520 c3         1 MOL      -0.035324
      7 H4          19.8790    17.5340    20.5790 hc         1 MOL       0.030949
      8 H5          18.3520    18.4010    20.4470 hc         1 MOL       0.030949
      9 C4          19.8440    19.4210    21.6410 c3         1 MOL      -0.049473
     10 H6          20.9290    19.5480    21.6460 hc         1 MOL       0.026978
     11 H7          19.3960    20.4100    21.5210 hc         1 MOL       0.026978
     12 C5          19.3900    18.8090    22.9840 c3         1 MOL      -0.047763
     13 H8          19.8380    17.8190    23.1050 hc         1 MOL       0.027041
     14 H9          18.3050    18.6820    22.9780 hc         1 MOL       0.027041
     15 C6          19.7970    19.7040    24.1730 c3         1 MOL      -0.013129
     16 H10         20.8830    19.8400    24.1740 hc         1 MOL       0.032842
     17 H11         19.3560    20.6990    24.0480 hc         1 MOL       0.032842
     18 C7          19.3410    19.0870    25.4950 c          1 MOL       0.041390
     19 O1          20.0820    18.3260    26.0950 o          1 MOL      -0.550166
     20 O2          18.2390    19.3620    25.9420 o          1 MOL      -0.550166
@<TRIPOS>BOND
     1     1     2 1   
     2     1     3 1   
     3     1     4 2   
     4     4     5 1   
     5     4     6 1   
     6     6     7 1   
     7     6     8 1   
     8     6     9 1   
     9     9    10 1   
    10     9    11 1   
    11     9    12 1   
    12    12    13 1   
    13    12    14 1   
    14    12    15 1   
    15    15    16 1   
    16    15    17 1   
    17    15    18 1   
    18    18    19 1   
    19    18    20 1   
@<TRIPOS>SUBSTRUCTURE
     1 MOL         1 TEMP              0 ****  ****    0 ROOT
