@<TRIPOS>MOLECULE
MOL
   17    16     1     0     0
SMALL
gas


@<TRIPOS>ATOM
      1 C1          19.7510    18.7630    25.2620 c          1 MOL       0.063921
      2 O1          19.1100    19.7120    25.6770 o          1 MOL      -0.545476
      3 O2          20.0050    17.8050    25.9670 o          1 MOL      -0.545476
      4 C2          20.2500    18.7520    23.8590 ce         1 MOL      -0.043409
      5 H1          20.8130    17.8650    23.5720 ha         1 MOL       0.063832
      6 C3          20.0430    19.7440    22.9680 c2         1 MOL      -0.082743
      7 H2          19.4800    20.6350    23.2420 ha         1 MOL       0.057638
      8 C4          20.5630    19.7020    21.5450 c3         1 MOL      -0.034955
      9 H3          21.5390    19.2120    21.5210 hc         1 MOL       0.030961
     10 H4          20.7050    20.7240    21.1850 hc         1 MOL       0.030961
     11 C5          19.5880    18.9590    20.6060 c3         1 MOL      -0.052674
     12 H5          19.4460    17.9340    20.9560 hc         1 MOL       0.026684
     13 H6          18.6140    19.4530    20.6240 hc         1 MOL       0.026684
     14 C6          20.1150    18.9310    19.1580 c3         1 MOL      -0.065085
     15 H7          21.0790    18.4190    19.1080 hc         1 MOL       0.023045
     16 H8          19.4130    18.4020    18.5120 hc         1 MOL       0.023045
     17 H9          20.2410    19.9450    18.7730 hc         1 MOL       0.023045
@<TRIPOS>BOND
     1     1     2 1   
     2     1     3 1   
     3     1     4 1   
     4     4     5 1   
     5     4     6 2   
     6     6     7 1   
     7     6     8 1   
     8     8     9 1   
     9     8    10 1   
    10     8    11 1   
    11    11    12 1   
    12    11    13 1   
    13    11    14 1   
    14    14    15 1   
    15    14    16 1   
    16    14    17 1   
@<TRIPOS>SUBSTRUCTURE
     1 MOL         1 TEMP              0 ****  ****    0 ROOT
