@<TRIPOS>MOLECULE
MOL
   29    28     1     0     0
SMALL
gas


@<TRIPOS>ATOM
      1 C1          19.9880    18.9940    18.8320 c3         1 MOL      -0.065384
      2 H1          20.2910    17.9440    18.7930 hc         1 MOL       0.023036
      3 H2          19.4140    19.2180    17.9300 hc         1 MOL       0.023036
      4 H3          20.8860    19.6160    18.8310 hc         1 MOL       0.023036
      5 C2          19.1370    19.2680    20.0860 c3         1 MOL      -0.056175
      6 H4          18.2340    18.6530    20.0490 hc         1 MOL       0.026372
      7 H5          18.8250    20.3150    20.0860 hc         1 MOL       0.026372
      8 C3          19.9240    18.9590    21.3770 c3         1 MOL      -0.053572
      9 H6          20.2380    17.9120    21.3710 hc         1 MOL       0.026645
     10 H7          20.8290    19.5730    21.4080 hc         1 MOL       0.026645
     11 C4          19.0720    19.2340    22.6320 c3         1 MOL      -0.053316
     12 H8          18.1690    18.6210    22.6000 hc         1 MOL       0.026655
     13 H9          18.7600    20.2820    22.6370 hc         1 MOL       0.026655
     14 C5          19.8590    18.9260    23.9230 c3         1 MOL      -0.053099
     15 H10         20.1720    17.8780    23.9170 hc         1 MOL       0.026658
     16 H11         20.7630    19.5400    23.9540 hc         1 MOL       0.026658
     17 C6          19.0060    19.2020    25.1790 c3         1 MOL      -0.048344
     18 H12         18.1020    18.5870    25.1470 hc         1 MOL       0.026867
     19 H13         18.6930    20.2480    25.1840 hc         1 MOL       0.026867
     20 C7          19.7920    18.8920    26.4700 c3         1 MOL      -0.013845
     21 H14         20.1040    17.8440    26.4670 hc         1 MOL       0.032058
     22 H15         20.6960    19.5080    26.5040 hc         1 MOL       0.032058
     23 C8          18.9290    19.1720    27.7150 c3         1 MOL      -0.038085
     24 H16         18.0290    18.5510    27.6890 hx         1 MOL       0.081283
     25 H17         18.6240    20.2220    27.7270 hx         1 MOL       0.081283
     26 N1          19.6370    18.8910    29.0210 n4         1 MOL       0.231584
     27 H18         19.9290    17.9030    29.0950 hn         1 MOL       0.196017
     28 H19         19.0300    19.0890    29.8340 hn         1 MOL       0.196017
     29 H20         20.4860    19.4690    29.1300 hn         1 MOL       0.196017
@<TRIPOS>BOND
     1     1     2 1   
     2     1     3 1   
     3     1     4 1   
     4     1     5 1   
     5     5     6 1   
     6     5     7 1   
     7     5     8 1   
     8     8     9 1   
     9     8    10 1   
    10     8    11 1   
    11    11    12 1   
    12    11    13 1   
    13    11    14 1   
    14    14    15 1   
    15    14    16 1   
    16    14    17 1   
    17    17    18 1   
    18    17    19 1   
    19    17    20 1   
    20    20    21 1   
    21    20    22 1   
    22    20    23 1   
    23    23    24 1   
    24    23    25 1   
    25    23    26 1   
    26    26    27 1   
    27    26    28 1   
    28    26    29 1   
@<TRIPOS>SUBSTRUCTURE
     1 MOL         1 TEMP              0 ****  ****    0 ROOT
