@<TRIPOS>MOLECULE
MOL
   20    19     1     0     0
SMALL
gas


@<TRIPOS>ATOM
      1 C1          19.8610    19.1430    18.8270 c3         1 MOL      -0.065173
      2 H1          20.3490    18.6870    17.9630 hc         1 MOL       0.023040
      3 H2          18.7860    18.9730    18.7420 hc         1 MOL       0.023040
      4 H3          20.0460    20.2200    18.7950 hc         1 MOL       0.023040
      5 C2          20.4090    18.5360    20.1310 c3         1 MOL      -0.051208
      6 H4          21.4890    18.6960    20.1790 hc         1 MOL       0.026584
      7 H5          20.2350    17.4560    20.1260 hc         1 MOL       0.026584
      8 C3          19.7350    19.1640    21.3680 c3         1 MOL      -0.014042
      9 H6          19.9090    20.2430    21.3720 hc         1 MOL       0.032049
     10 H7          18.6550    19.0020    21.3200 hc         1 MOL       0.032049
     11 C4          20.2920    18.5460    22.6650 c3         1 MOL      -0.036596
     12 H8          21.3690    18.7170    22.7280 hx         1 MOL       0.081348
     13 H9          20.1070    17.4690    22.6750 hx         1 MOL       0.081348
     14 N1          19.6820    19.1090    23.9270 n4         1 MOL       0.237057
     15 H10         18.6550    18.9710    23.9150 hn         1 MOL       0.197735
     16 H11         19.8310    20.1340    23.9640 hn         1 MOL       0.197735
     17 C5          20.2870    18.4460    25.1450 c3         1 MOL      -0.047427
     18 H12         21.3650    18.6330    25.1470 hx         1 MOL       0.077612
     19 H13         19.8290    18.8710    26.0410 hx         1 MOL       0.077612
     20 H14         20.0900    17.3720    25.0940 hx         1 MOL       0.077612
@<TRIPOS>BOND
     1     1     2 1   
     2     1     3 1   
     3     1     4 1   
     4     1     5 1   
     5     5     6 1   
     6     5     7 1   
     7     5     8 1   
     8     8     9 1   
     9     8    10 1   
    10     8    11 1   
    11    11    12 1   
    12    11    13 1   
    13    11    14 1   
    14    14    15 1   
    15    14    16 1   
    16    14    17 1   
    17    17    18 1   
    18    17    19 1   
    19    17    20 1   
@<TRIPOS>SUBSTRUCTURE
     1 MOL         1 TEMP              0 ****  ****    0 ROOT
