@<TRIPOS>MOLECULE
MOL
   17    16     1     0     0
SMALL
gas


@<TRIPOS>ATOM
      1 C1          20.0990    18.9760    25.3640 c          1 MOL       0.045153
      2 O1          21.2190    19.2430    25.7720 o          1 MOL      -0.549830
      3 O2          19.1120    19.2560    26.0270 o          1 MOL      -0.549830
      4 C2          19.9360    18.2860    24.0080 c3         1 MOL       0.004978
      5 H1          18.9450    17.8270    23.9380 hc         1 MOL       0.037198
      6 H2          20.6590    17.4660    23.9330 hc         1 MOL       0.037198
      7 C3          20.1550    19.2410    22.8490 c2         1 MOL      -0.082923
      8 H3          20.3910    20.2680    23.1260 ha         1 MOL       0.057644
      9 C4          20.0690    18.8860    21.5710 c2         1 MOL      -0.088437
     10 H4          19.8330    17.8580    21.2980 ha         1 MOL       0.057248
     11 C5          20.2860    19.8380    20.4150 c3         1 MOL      -0.037920
     12 H5          19.5800    20.6710    20.4710 hc         1 MOL       0.030679
     13 H6          21.2920    20.2610    20.4760 hc         1 MOL       0.030679
     14 C6          20.1170    19.1260    19.0610 c3         1 MOL      -0.061886
     15 H7          19.1090    18.7160    18.9640 hc         1 MOL       0.023350
     16 H8          20.2830    19.8280    18.2410 hc         1 MOL       0.023350
     17 H9          20.8360    18.3090    18.9640 hc         1 MOL       0.023350
@<TRIPOS>BOND
     1     1     2 1   
     2     1     3 1   
     3     1     4 1   
     4     4     5 1   
     5     4     6 1   
     6     4     7 1   
     7     7     8 1   
     8     7     9 2   
     9     9    10 1   
    10     9    11 1   
    11    11    12 1   
    12    11    13 1   
    13    11    14 1   
    14    14    15 1   
    15    14    16 1   
    16    14    17 1   
@<TRIPOS>SUBSTRUCTURE
     1 MOL         1 TEMP              0 ****  ****    0 ROOT
