@<TRIPOS>MOLECULE
MOL
   16    15     1     0     0
SMALL
gas


@<TRIPOS>ATOM
      1 C1          20.0180    19.3820    24.6550 c          1 MOL       0.041389
      2 O1          20.1320    20.5970    24.6490 o          1 MOL      -0.550166
      3 O2          19.9590    18.7770    25.7120 o          1 MOL      -0.550166
      4 C2          19.9450    18.5860    23.3520 c3         1 MOL      -0.013149
      5 H1          19.0070    18.0200    23.3300 hc         1 MOL       0.032842
      6 H2          20.7600    17.8550    23.3340 hc         1 MOL       0.032842
      7 C3          20.0300    19.4620    22.0820 c3         1 MOL      -0.048320
      8 H3          19.2100    20.1850    22.0780 hc         1 MOL       0.027020
      9 H4          20.9700    20.0180    22.0810 hc         1 MOL       0.027020
     10 C4          19.9510    18.6010    20.8030 c3         1 MOL      -0.055809
     11 H5          19.0120    18.0410    20.7930 hc         1 MOL       0.026381
     12 H6          20.7680    17.8740    20.7970 hc         1 MOL       0.026381
     13 C5          20.0350    19.4680    19.5350 c3         1 MOL      -0.065369
     14 H7          19.2120    20.1860    19.5030 hc         1 MOL       0.023035
     15 H8          19.9770    18.8410    18.6430 hc         1 MOL       0.023035
     16 H9          20.9780    20.0200    19.5060 hc         1 MOL       0.023035
@<TRIPOS>BOND
     1     1     2 1   
     2     1     3 1   
     3     1     4 1   
     4     4     5 1   
     5     4     6 1   
     6     4     7 1   
     7     7     8 1   
     8     7     9 1   
     9     7    10 1   
    10    10    11 1   
    11    10    12 1   
    12    10    13 1   
    13    13    14 1   
    14    13    15 1   
    15    13    16 1   
@<TRIPOS>SUBSTRUCTURE
     1 MOL         1 TEMP              0 ****  ****    0 ROOT
