@<TRIPOS>MOLECULE
MOL
   26    25     1     0     0
SMALL
gas


@<TRIPOS>ATOM
      1 C1          19.9020    19.3140    18.8340 c3         1 MOL      -0.065384
      2 H1          18.8120    19.3590    18.7730 hc         1 MOL       0.023036
      3 H2          20.2930    20.3350    18.8220 hc         1 MOL       0.023036
      4 H3          20.2760    18.7930    17.9510 hc         1 MOL       0.023036
      5 C2          20.3450    18.5790    20.1140 c3         1 MOL      -0.056175
      6 H4          21.4360    18.5250    20.1370 hc         1 MOL       0.026372
      7 H5          19.9640    17.5550    20.0880 hc         1 MOL       0.026372
      8 C3          19.8310    19.2940    21.3800 c3         1 MOL      -0.053568
      9 H6          20.2110    20.3190    21.3980 hc         1 MOL       0.026645
     10 H7          18.7380    19.3480    21.3490 hc         1 MOL       0.026645
     11 C4          20.2740    18.5560    22.6600 c3         1 MOL      -0.053109
     12 H8          21.3660    18.5020    22.6890 hc         1 MOL       0.026658
     13 H9          19.8930    17.5320    22.6400 hc         1 MOL       0.026658
     14 C5          19.7600    19.2720    23.9260 c3         1 MOL      -0.048344
     15 H10         20.1410    20.2960    23.9460 hc         1 MOL       0.026867
     16 H11         18.6690    19.3250    23.8960 hc         1 MOL       0.026867
     17 C6          20.2040    18.5340    25.2060 c3         1 MOL      -0.013845
     18 H12         21.2950    18.4820    25.2390 hc         1 MOL       0.032058
     19 H13         19.8220    17.5100    25.1900 hc         1 MOL       0.032058
     20 C7          19.6840    19.2590    26.4610 c3         1 MOL      -0.038085
     21 H14         20.0720    20.2810    26.4880 hx         1 MOL       0.081283
     22 H15         18.5920    19.3050    26.4380 hx         1 MOL       0.081283
     23 N1          20.0810    18.5910    27.7600 n4         1 MOL       0.231584
     24 H16         21.1070    18.5400    27.8670 hn         1 MOL       0.196017
     25 H17         19.7200    17.6250    27.8210 hn         1 MOL       0.196017
     26 H18         19.7160    19.1020    28.5800 hn         1 MOL       0.196017
@<TRIPOS>BOND
     1     1     2 1   
     2     1     3 1   
     3     1     4 1   
     4     1     5 1   
     5     5     6 1   
     6     5     7 1   
     7     5     8 1   
     8     8     9 1   
     9     8    10 1   
    10     8    11 1   
    11    11    12 1   
    12    11    13 1   
    13    11    14 1   
    14    14    15 1   
    15    14    16 1   
    16    14    17 1   
    17    17    18 1   
    18    17    19 1   
    19    17    20 1   
    20    20    21 1   
    21    20    22 1   
    22    20    23 1   
    23    23    24 1   
    24    23    25 1   
    25    23    26 1   
@<TRIPOS>SUBSTRUCTURE
     1 MOL         1 TEMP              0 ****  ****    0 ROOT
