@<TRIPOS>MOLECULE
MOL
   23    22     1     0     0
SMALL
gas


@<TRIPOS>ATOM
      1 N1          19.7360    18.6750    26.4240 n4         1 MOL       0.231584
      2 H1          19.1990    17.7940    26.4630 hn         1 MOL       0.196017
      3 H2          19.4670    19.2300    27.2540 hn         1 MOL       0.196017
      4 H3          20.7330    18.4320    26.5330 hn         1 MOL       0.196017
      5 C1          19.4790    19.4330    25.1410 c3         1 MOL      -0.038085
      6 H4          20.0510    20.3630    25.1920 hx         1 MOL       0.081283
      7 H5          18.4150    19.6810    25.1170 hx         1 MOL       0.081283
      8 C2          19.8630    18.6480    23.8730 c3         1 MOL      -0.013845
      9 H6          20.9250    18.3930    23.9080 hc         1 MOL       0.032058
     10 H7          19.2970    17.7140    23.8330 hc         1 MOL       0.032058
     11 C3          19.5740    19.4820    22.6060 c3         1 MOL      -0.048354
     12 H8          20.1390    20.4170    22.6500 hc         1 MOL       0.026867
     13 H9          18.5120    19.7390    22.5760 hc         1 MOL       0.026867
     14 C4          19.9540    18.7070    21.3270 c3         1 MOL      -0.053361
     15 H10         21.0170    18.4500    21.3580 hc         1 MOL       0.026648
     16 H11         19.3900    17.7730    21.2840 hc         1 MOL       0.026648
     17 C5          19.6650    19.5420    20.0600 c3         1 MOL      -0.056171
     18 H12         20.2300    20.4770    20.0980 hc         1 MOL       0.026372
     19 H13         18.6030    19.7990    20.0240 hc         1 MOL       0.026372
     20 C6          20.0450    18.7700    18.7830 c3         1 MOL      -0.065384
     21 H14         21.1080    18.5240    18.7840 hc         1 MOL       0.023036
     22 H15         19.8330    19.3750    17.8990 hc         1 MOL       0.023036
     23 H16         19.4720    17.8430    18.7100 hc         1 MOL       0.023036
@<TRIPOS>BOND
     1     1     2 1   
     2     1     3 1   
     3     1     4 1   
     4     1     5 1   
     5     5     6 1   
     6     5     7 1   
     7     5     8 1   
     8     8     9 1   
     9     8    10 1   
    10     8    11 1   
    11    11    12 1   
    12    11    13 1   
    13    11    14 1   
    14    14    15 1   
    15    14    16 1   
    16    14    17 1   
    17    17    18 1   
    18    17    19 1   
    19    17    20 1   
    20    20    21 1   
    21    20    22 1   
    22    20    23 1   
@<TRIPOS>SUBSTRUCTURE
     1 MOL         1 TEMP              0 ****  ****    0 ROOT
