@<TRIPOS>MOLECULE
MOL
   19    18     1     0     0
SMALL
gas


@<TRIPOS>ATOM
      1 C1          20.0070    19.2180    25.5150 c          1 MOL       0.041389
      2 O1          19.9490    18.5890    26.5590 o          1 MOL      -0.550166
      3 O2          20.1200    20.4320    25.5420 o          1 MOL      -0.550166
      4 C2          19.9360    18.4500    24.1900 c3         1 MOL      -0.013140
      5 H1          19.0000    17.8820    24.1520 hc         1 MOL       0.032842
      6 H2          20.7510    17.7190    24.1520 hc         1 MOL       0.032842
      7 C3          20.0200    19.3550    22.9390 c3         1 MOL      -0.048068
      8 H3          19.1990    20.0760    22.9510 hc         1 MOL       0.027030
      9 H4          20.9600    19.9120    22.9510 hc         1 MOL       0.027030
     10 C4          19.9430    18.5200    21.6420 c3         1 MOL      -0.053206
     11 H5          19.0050    17.9580    21.6240 hc         1 MOL       0.026653
     12 H6          20.7610    17.7960    21.6240 hc         1 MOL       0.026653
     13 C5          20.0260    19.4190    20.3910 c3         1 MOL      -0.056156
     14 H7          19.2080    20.1440    20.4030 hc         1 MOL       0.026369
     15 H8          20.9640    19.9810    20.4030 hc         1 MOL       0.026369
     16 C6          19.9490    18.5890    19.0970 c3         1 MOL      -0.065381
     17 H9          19.0070    18.0390    19.0470 hc         1 MOL       0.023034
     18 H10         20.0100    19.2430    18.2250 hc         1 MOL       0.023034
     19 H11         20.7730    17.8740    19.0470 hc         1 MOL       0.023034
@<TRIPOS>BOND
     1     1     2 1   
     2     1     3 1   
     3     1     4 1   
     4     4     5 1   
     5     4     6 1   
     6     4     7 1   
     7     7     8 1   
     8     7     9 1   
     9     7    10 1   
    10    10    11 1   
    11    10    12 1   
    12    10    13 1   
    13    13    14 1   
    14    13    15 1   
    15    13    16 1   
    16    16    17 1   
    17    16    18 1   
    18    16    19 1   
@<TRIPOS>SUBSTRUCTURE
     1 MOL         1 TEMP              0 ****  ****    0 ROOT
