@<TRIPOS>MOLECULE
MOL
   13    13     1     0     0
SMALL
gas


@<TRIPOS>ATOM
      1 C1          19.7090    18.9910    20.9340 cy         1 MOL      -0.048389
      2 H1          18.7700    19.3030    20.4620 hc         1 MOL       0.026844
      3 H2          20.4370    18.7710    20.1470 hc         1 MOL       0.026844
      4 C2          19.5570    17.9110    22.0500 cy         1 MOL      -0.026914
      5 H3          18.7600    17.1780    21.9030 hc         1 MOL       0.029298
      6 H4          20.4800    17.3750    22.3010 hc         1 MOL       0.029298
      7 C3          19.2140    19.1100    22.9830 cy         1 MOL       0.053988
      8 H5          18.1700    19.4450    22.9200 h1         1 MOL       0.060034
      9 C4          20.2030    19.9170    22.0890 cy         1 MOL      -0.026914
     10 H6          21.2620    19.8030    22.3470 hc         1 MOL       0.029298
     11 H7          19.9850    20.9820    21.9770 hc         1 MOL       0.029298
     12 O1          19.6300    18.9460    24.3300 oh         1 MOL      -0.393131
     13 H8          19.4440    19.8160    24.7890 ho         1 MOL       0.210445
@<TRIPOS>BOND
     1     1     2 1   
     2     1     3 1   
     3     1     4 1   
     4     1     9 1   
     5     4     5 1   
     6     4     6 1   
     7     4     7 1   
     8     7     8 1   
     9     7     9 1   
    10     7    12 1   
    11     9    10 1   
    12     9    11 1   
    13    12    13 1   
@<TRIPOS>SUBSTRUCTURE
     1 MOL         1 TEMP              0 ****  ****    0 ROOT
