@<TRIPOS>MOLECULE
MOL
   22    21     1     0     0
SMALL
gas


@<TRIPOS>ATOM
      1 C1          19.8240    19.1120    26.1840 c          1 MOL       0.041389
      2 O1          20.5500    20.0920    26.2290 o          1 MOL      -0.550166
      3 O2          19.4190    18.6080    27.2180 o          1 MOL      -0.550166
      4 C2          19.4030    18.4890    24.8490 c3         1 MOL      -0.013139
      5 H1          18.3100    18.4880    24.7790 hc         1 MOL       0.032842
      6 H2          19.7220    17.4410    24.8220 hc         1 MOL       0.032842
      7 C3          19.9800    19.2160    23.6110 c3         1 MOL      -0.048058
      8 H3          19.6520    20.2600    23.6120 hc         1 MOL       0.027030
      9 H4          21.0710    19.2060    23.6550 hc         1 MOL       0.027030
     10 C4          19.5180    18.5400    22.3030 c3         1 MOL      -0.052954
     11 H5          18.4260    18.5470    22.2540 hc         1 MOL       0.026663
     12 H6          19.8420    17.4970    22.2970 hc         1 MOL       0.026663
     13 C5          20.0920    19.2640    21.0670 c3         1 MOL      -0.053553
     14 H7          19.7680    20.3070    21.0720 hc         1 MOL       0.026641
     15 H8          21.1840    19.2570    21.1150 hc         1 MOL       0.026641
     16 C6          19.6310    18.5890    19.7590 c3         1 MOL      -0.056167
     17 H9          18.5390    18.5950    19.7050 hc         1 MOL       0.026369
     18 H10         19.9550    17.5460    19.7480 hc         1 MOL       0.026369
     19 C7          20.2030    19.3090    18.5240 c3         1 MOL      -0.065381
     20 H11         19.8710    20.3500    18.4950 hc         1 MOL       0.023034
     21 H12         19.8650    18.8170    17.6090 hc         1 MOL       0.023034
     22 H13         21.2950    19.2930    18.5380 hc         1 MOL       0.023034
@<TRIPOS>BOND
     1     1     2 1   
     2     1     3 1   
     3     1     4 1   
     4     4     5 1   
     5     4     6 1   
     6     4     7 1   
     7     7     8 1   
     8     7     9 1   
     9     7    10 1   
    10    10    11 1   
    11    10    12 1   
    12    10    13 1   
    13    13    14 1   
    14    13    15 1   
    15    13    16 1   
    16    16    17 1   
    17    16    18 1   
    18    16    19 1   
    19    19    20 1   
    20    19    21 1   
    21    19    22 1   
@<TRIPOS>SUBSTRUCTURE
     1 MOL         1 TEMP              0 ****  ****    0 ROOT
