@<TRIPOS>MOLECULE
MOL
   26    25     1     0     0
SMALL
gas


@<TRIPOS>ATOM
      1 C1          20.1510    18.6680    18.8340 c3         1 MOL      -0.065384
      2 H1          20.1350    19.3100    17.9510 hc         1 MOL       0.023036
      3 H2          21.0750    18.0840    18.8170 hc         1 MOL       0.023036
      4 H3          19.3040    17.9810    18.7750 hc         1 MOL       0.023036
      5 C2          20.0710    19.5200    20.1150 c3         1 MOL      -0.056171
      6 H4          19.1530    20.1130    20.0950 hc         1 MOL       0.026372
      7 H5          20.9140    20.2150    20.1370 hc         1 MOL       0.026372
      8 C3          20.0930    18.6360    21.3780 c3         1 MOL      -0.053350
      9 H6          19.2500    17.9410    21.3500 hc         1 MOL       0.026648
     10 H7          21.0100    18.0430    21.3940 hc         1 MOL       0.026648
     11 C4          20.0110    19.4910    22.6620 c3         1 MOL      -0.048072
     12 H8          19.0910    20.0810    22.6460 hc         1 MOL       0.026879
     13 H9          20.8520    20.1880    22.6810 hc         1 MOL       0.026879
     14 C5          20.0310    18.6050    23.9260 c3         1 MOL      -0.011249
     15 H10         19.2130    17.8830    23.8610 hc         1 MOL       0.032364
     16 H11         20.9640    18.0330    23.9630 hc         1 MOL       0.032364
     17 C6          19.8710    19.4300    25.2240 c3         1 MOL      -0.030025
     18 H12         20.7170    20.1170    25.3090 hx         1 MOL       0.084724
     19 C7          18.5720    20.2470    25.1470 c3         1 MOL      -0.022765
     20 H13         17.6980    19.5950    25.0630 hc         1 MOL       0.028737
     21 H14         18.5870    20.9110    24.2780 hc         1 MOL       0.028737
     22 H15         18.4520    20.8700    26.0370 hc         1 MOL       0.028737
     23 N1          19.8880    18.5910    26.4680 n4         1 MOL       0.233557
     24 H16         20.7740    18.0710    26.5640 hn         1 MOL       0.196297
     25 H17         19.7830    19.1730    27.3140 hn         1 MOL       0.196297
     26 H18         19.1200    17.9030    26.4690 hn         1 MOL       0.196297
@<TRIPOS>BOND
     1     1     2 1   
     2     1     3 1   
     3     1     4 1   
     4     1     5 1   
     5     5     6 1   
     6     5     7 1   
     7     5     8 1   
     8     8     9 1   
     9     8    10 1   
    10     8    11 1   
    11    11    12 1   
    12    11    13 1   
    13    11    14 1   
    14    14    15 1   
    15    14    16 1   
    16    14    17 1   
    17    17    18 1   
    18    17    19 1   
    19    17    23 1   
    20    19    20 1   
    21    19    21 1   
    22    19    22 1   
    23    23    24 1   
    24    23    25 1   
    25    23    26 1   
@<TRIPOS>SUBSTRUCTURE
     1 MOL         1 TEMP              0 ****  ****    0 ROOT
