@<TRIPOS>MOLECULE
MOL
   26    25     1     0     0
SMALL
gas


@<TRIPOS>ATOM
      1 N1          19.9830    18.6330    26.4840 n4         1 MOL       0.237058
      2 H1          20.8680    18.0970    26.5380 hn         1 MOL       0.197735
      3 H2          19.2240    17.9280    26.4800 hn         1 MOL       0.197735
      4 C1          19.9460    19.4370    25.2060 c3         1 MOL      -0.036585
      5 H3          20.7630    20.1610    25.2590 hx         1 MOL       0.081349
      6 H4          18.9980    19.9800    25.1970 hx         1 MOL       0.081349
      7 C2          20.0780    18.5880    23.9270 c3         1 MOL      -0.013780
      8 H5          21.0230    18.0380    23.9490 hc         1 MOL       0.032059
      9 H6          19.2670    17.8570    23.8870 hc         1 MOL       0.032059
     10 C3          20.0310    19.4840    22.6720 c3         1 MOL      -0.048353
     11 H7          20.8420    20.2160    22.7160 hc         1 MOL       0.026867
     12 H8          19.0880    20.0360    22.6540 hc         1 MOL       0.026867
     13 C4          20.1620    18.6470    21.3820 c3         1 MOL      -0.053361
     14 H9          21.1060    18.0950    21.3990 hc         1 MOL       0.026648
     15 H10         19.3520    17.9150    21.3370 hc         1 MOL       0.026648
     16 C5          20.1150    19.5440    20.1260 c3         1 MOL      -0.056171
     17 H11         20.9260    20.2760    20.1660 hc         1 MOL       0.026372
     18 H12         19.1720    20.0960    20.1030 hc         1 MOL       0.026372
     19 C6          20.2460    18.7100    18.8380 c3         1 MOL      -0.065384
     20 H13         21.1950    18.1680    18.8240 hc         1 MOL       0.023036
     21 H14         20.2110    19.3610    17.9610 hc         1 MOL       0.023036
     22 H15         19.4310    17.9870    18.7610 hc         1 MOL       0.023036
     23 C7          19.8470    19.5470    27.6820 c3         1 MOL      -0.047427
     24 H16         18.8930    20.0760    27.6150 hx         1 MOL       0.077612
     25 H17         19.8770    18.9410    28.5920 hx         1 MOL       0.077612
     26 H18         20.6760    20.2600    27.6780 hx         1 MOL       0.077612
@<TRIPOS>BOND
     1     1     2 1   
     2     1     3 1   
     3     1     4 1   
     4     1    23 1   
     5     4     5 1   
     6     4     6 1   
     7     4     7 1   
     8     7     8 1   
     9     7     9 1   
    10     7    10 1   
    11    10    11 1   
    12    10    12 1   
    13    10    13 1   
    14    13    14 1   
    15    13    15 1   
    16    13    16 1   
    17    16    17 1   
    18    16    18 1   
    19    16    19 1   
    20    19    20 1   
    21    19    21 1   
    22    19    22 1   
    23    23    24 1   
    24    23    25 1   
    25    23    26 1   
@<TRIPOS>SUBSTRUCTURE
     1 MOL         1 TEMP              0 ****  ****    0 ROOT
