@<TRIPOS>MOLECULE
guest-s21_vm2.mol2 : vm2 ligand conformer 1
          22          21           1
SMALL
USER_CHARGES
 
@<TRIPOS>ATOM
       1    C1      19.831439   19.134070   26.187474 C.2        1 MOL1         0.6145
       2    O1      20.058647   20.237168   26.643527 O.co2      1 MOL1        -0.6735
       3    O2      20.174561   18.099771   26.724989 O.co2      1 MOL1        -0.6735
       4    C2      19.094620   19.043364   24.855901 C.3        1 MOL1        -0.1985
       5    H1      18.398039   19.888095   24.793699 H          1 MOL1         0.0740
       6    H2      18.492822   18.126591   24.861261 H          1 MOL1         0.0740
       7    C3      20.050623   19.048081   23.637669 C.3        1 MOL1        -0.1882
       8    H3      20.654885   19.965779   23.654132 H          1 MOL1         0.0742
       9    H4      20.749625   18.204329   23.721655 H          1 MOL1         0.0742
      10    C4      19.280794   18.955499   22.302501 C.3        1 MOL1        -0.1880
      11    H5      18.582153   19.799677   22.222257 H          1 MOL1         0.0742
      12    H6      18.676799   18.037783   22.289854 H          1 MOL1         0.0742
      13    C5      20.236312   18.960301   21.089963 C.3        1 MOL1        -0.1880
      14    H7      20.840549   19.877837   21.102281 H          1 MOL1         0.0742
      15    H8      20.935091   18.116229   21.169815 H          1 MOL1         0.0742
      16    C6      19.467652   18.867880   19.755165 C.3        1 MOL1        -0.1856
      17    H9      18.769001   19.711817   19.670700 H          1 MOL1         0.0742
      18    H10     18.863439   17.950209   19.738279 H          1 MOL1         0.0742
      19    C7      20.425352   18.872865   18.546812 C.3        1 MOL1        -0.2871
      20    H11     21.115707   18.020213   18.589254 H          1 MOL1         0.0754
      21    H12     21.020605   19.795049   18.521197 H          1 MOL1         0.0754
      22    H13     19.862403   18.806654   17.606708 H          1 MOL1         0.0754
@<TRIPOS>BOND
    1     1     2    1
    2     1     3    2
    3     1     4    1
    4     4     5    1
    5     4     6    1
    6     4     7    1
    7     7     8    1
    8     7     9    1
    9     7    10    1
   10    10    11    1
   11    10    12    1
   12    10    13    1
   13    13    14    1
   14    13    15    1
   15    13    16    1
   16    16    17    1
   17    16    18    1
   18    16    19    1
   19    19    20    1
   20    19    21    1
   21    19    22    1
@<TRIPOS>SUBSTRUCTURE
       1 MOL1            1 RESIDUE      1      MOL     
@<SCITEGIC>MOL_PROPERTY
VM2 Rank
SciTegic.value.IntegerValue
1

@<SCITEGIC>MOL_PROPERTY
Conf_Id
SciTegic.value.IntegerValue
236

@<SCITEGIC>MOL_PROPERTY
Probability
SciTegic.value.DoubleValue
33.65

@<SCITEGIC>MOL_PROPERTY
Sum Probability
SciTegic.value.DoubleValue
33.65

@<SCITEGIC>MOL_PROPERTY
Delta G
SciTegic.value.DoubleValue
0.000

@<SCITEGIC>MOL_PROPERTY
G
SciTegic.value.DoubleValue
-16.998

@<SCITEGIC>MOL_PROPERTY
E
SciTegic.value.DoubleValue
-36.566

@<SCITEGIC>MOL_PROPERTY
-TS
SciTegic.value.DoubleValue
19.568

@<SCITEGIC>MOL_PROPERTY
U+W
SciTegic.value.DoubleValue
-54.450

@<SCITEGIC>MOL_PROPERTY
U
SciTegic.value.DoubleValue
5.779

@<SCITEGIC>MOL_PROPERTY
W
SciTegic.value.DoubleValue
-60.230

@<SCITEGIC>MOL_PROPERTY
W(PB)
SciTegic.value.DoubleValue
-62.557

@<SCITEGIC>MOL_PROPERTY
W(SA)
SciTegic.value.DoubleValue
2.328

@<SCITEGIC>MOL_PROPERTY
Valence
SciTegic.value.DoubleValue
7.101

@<SCITEGIC>MOL_PROPERTY
Coulomb
SciTegic.value.DoubleValue
-2.079

@<SCITEGIC>MOL_PROPERTY
VdW
SciTegic.value.DoubleValue
0.757

@<SCITEGIC>MOL_PROPERTY
VdW6
SciTegic.value.DoubleValue
-6.496

@<SCITEGIC>MOL_PROPERTY
VdW12
SciTegic.value.DoubleValue
7.253

@<SCITEGIC>MOL_PROPERTY
Bond
SciTegic.value.DoubleValue
0.100

@<SCITEGIC>MOL_PROPERTY
Angle
SciTegic.value.DoubleValue
2.262

@<SCITEGIC>MOL_PROPERTY
Pdih
SciTegic.value.DoubleValue
4.739

@<SCITEGIC>MOL_PROPERTY
Idih
SciTegic.value.DoubleValue
0.001

@<SCITEGIC>MOL_PROPERTY
Tether
SciTegic.value.DoubleValue
0.000

@<TRIPOS>MOLECULE
guest-s21_vm2.mol2 : vm2 ligand conformer 2
          22          21           1
SMALL
USER_CHARGES
 
@<TRIPOS>ATOM
       1    C1      19.729080   18.854878   25.965544 C.2        1 MOL1         0.6145
       2    O1      19.213001   19.642956   26.733095 O.co2      1 MOL1        -0.6735
       3    O2      20.523292   18.002184   26.309996 O.co2      1 MOL1        -0.6735
       4    C2      19.378382   18.956842   24.485413 C.3        1 MOL1        -0.1985
       5    H1      18.343415   19.310020   24.404576 H          1 MOL1         0.0740
       6    H2      19.411097   17.945453   24.064933 H          1 MOL1         0.0740
       7    C3      20.329102   19.903548   23.707590 C.3        1 MOL1        -0.1882
       8    H3      20.342648   20.880508   24.210391 H          1 MOL1         0.0742
       9    H4      21.355611   19.514833   23.757693 H          1 MOL1         0.0742
      10    C4      19.920475   20.112209   22.229996 C.3        1 MOL1        -0.1880
      11    H5      20.573142   20.880497   21.793252 H          1 MOL1         0.0742
      12    H6      18.897602   20.510453   22.183893 H          1 MOL1         0.0742
      13    C5      20.017922   18.825955   21.377628 C.3        1 MOL1        -0.1880
      14    H7      21.026852   18.400813   21.468283 H          1 MOL1         0.0742
      15    H8      19.316267   18.071253   21.755847 H          1 MOL1         0.0742
      16    C6      19.707637   19.102346   19.891453 C.3        1 MOL1        -0.1856
      17    H9      20.409979   19.850611   19.498707 H          1 MOL1         0.0742
      18    H10     18.699734   19.529751   19.797015 H          1 MOL1         0.0742
      19    C7      19.801109   17.818082   19.043286 C.3        1 MOL1        -0.2871
      20    H11     20.808993   17.385778   19.095032 H          1 MOL1         0.0754
      21    H12     19.578108   18.032924   17.990107 H          1 MOL1         0.0754
      22    H13     19.085635   17.062765   19.393981 H          1 MOL1         0.0754
@<TRIPOS>BOND
    1     1     2    1
    2     1     3    2
    3     1     4    1
    4     4     5    1
    5     4     6    1
    6     4     7    1
    7     7     8    1
    8     7     9    1
    9     7    10    1
   10    10    11    1
   11    10    12    1
   12    10    13    1
   13    13    14    1
   14    13    15    1
   15    13    16    1
   16    16    17    1
   17    16    18    1
   18    16    19    1
   19    19    20    1
   20    19    21    1
   21    19    22    1
@<TRIPOS>SUBSTRUCTURE
       1 MOL1            1 RESIDUE      1      MOL     
@<SCITEGIC>MOL_PROPERTY
VM2 Rank
SciTegic.value.IntegerValue
2

@<SCITEGIC>MOL_PROPERTY
Conf_Id
SciTegic.value.IntegerValue
121

@<SCITEGIC>MOL_PROPERTY
Probability
SciTegic.value.DoubleValue
8.69

@<SCITEGIC>MOL_PROPERTY
Sum Probability
SciTegic.value.DoubleValue
42.34

@<SCITEGIC>MOL_PROPERTY
Delta G
SciTegic.value.DoubleValue
0.807

@<SCITEGIC>MOL_PROPERTY
G
SciTegic.value.DoubleValue
-16.191

@<SCITEGIC>MOL_PROPERTY
E
SciTegic.value.DoubleValue
-35.868

@<SCITEGIC>MOL_PROPERTY
-TS
SciTegic.value.DoubleValue
19.678

@<SCITEGIC>MOL_PROPERTY
U+W
SciTegic.value.DoubleValue
-53.753

@<SCITEGIC>MOL_PROPERTY
U
SciTegic.value.DoubleValue
6.782

@<SCITEGIC>MOL_PROPERTY
W
SciTegic.value.DoubleValue
-60.535

@<SCITEGIC>MOL_PROPERTY
W(PB)
SciTegic.value.DoubleValue
-62.847

@<SCITEGIC>MOL_PROPERTY
W(SA)
SciTegic.value.DoubleValue
2.311

@<SCITEGIC>MOL_PROPERTY
Valence
SciTegic.value.DoubleValue
7.621

@<SCITEGIC>MOL_PROPERTY
Coulomb
SciTegic.value.DoubleValue
-1.711

@<SCITEGIC>MOL_PROPERTY
VdW
SciTegic.value.DoubleValue
0.872

@<SCITEGIC>MOL_PROPERTY
VdW6
SciTegic.value.DoubleValue
-7.188

@<SCITEGIC>MOL_PROPERTY
VdW12
SciTegic.value.DoubleValue
8.060

@<SCITEGIC>MOL_PROPERTY
Bond
SciTegic.value.DoubleValue
0.142

@<SCITEGIC>MOL_PROPERTY
Angle
SciTegic.value.DoubleValue
2.504

@<SCITEGIC>MOL_PROPERTY
Pdih
SciTegic.value.DoubleValue
4.974

@<SCITEGIC>MOL_PROPERTY
Idih
SciTegic.value.DoubleValue
0.001

@<SCITEGIC>MOL_PROPERTY
Tether
SciTegic.value.DoubleValue
0.000

@<TRIPOS>MOLECULE
guest-s21_vm2.mol2 : vm2 ligand conformer 3
          22          21           1
SMALL
USER_CHARGES
 
@<TRIPOS>ATOM
       1    C1      20.133442   19.130229   25.955959 C.2        1 MOL1         0.6145
       2    O1      19.613944   19.915999   26.723571 O.co2      1 MOL1        -0.6735
       3    O2      20.647731   18.086826   26.307130 O.co2      1 MOL1        -0.6735
       4    C2      20.118992   19.461175   24.467858 C.3        1 MOL1        -0.1985
       5    H1      21.034099   19.050669   24.026442 H          1 MOL1         0.0740
       6    H2      20.166547   20.551507   24.361375 H          1 MOL1         0.0740
       7    C3      18.865422   18.906877   23.742290 C.3        1 MOL1        -0.1882
       8    H3      18.853005   17.810704   23.816992 H          1 MOL1         0.0742
       9    H4      17.968082   19.263557   24.266699 H          1 MOL1         0.0742
      10    C4      18.773009   19.330909   22.257213 C.3        1 MOL1        -0.1880
      11    H5      18.775530   20.427281   22.186825 H          1 MOL1         0.0742
      12    H6      17.805418   18.996088   21.858907 H          1 MOL1         0.0742
      13    C5      19.905971   18.749706   21.380246 C.3        1 MOL1        -0.1880
      14    H7      20.876975   19.133667   21.718872 H          1 MOL1         0.0742
      15    H8      19.934912   17.657404   21.494014 H          1 MOL1         0.0742
      16    C6      19.714433   19.107068   19.891290 C.3        1 MOL1        -0.1856
      17    H9      19.683020   20.199165   19.773806 H          1 MOL1         0.0742
      18    H10     18.748643   18.719896   19.538048 H          1 MOL1         0.0742
      19    C7      20.847055   18.530210   19.018444 C.3        1 MOL1        -0.2871
      20    H11     21.822853   18.926085   19.329079 H          1 MOL1         0.0754
      21    H12     20.694822   18.793304   17.963607 H          1 MOL1         0.0754
      22    H13     20.881650   17.435398   19.093176 H          1 MOL1         0.0754
@<TRIPOS>BOND
    1     1     2    1
    2     1     3    2
    3     1     4    1
    4     4     5    1
    5     4     6    1
    6     4     7    1
    7     7     8    1
    8     7     9    1
    9     7    10    1
   10    10    11    1
   11    10    12    1
   12    10    13    1
   13    13    14    1
   14    13    15    1
   15    13    16    1
   16    16    17    1
   17    16    18    1
   18    16    19    1
   19    19    20    1
   20    19    21    1
   21    19    22    1
@<TRIPOS>SUBSTRUCTURE
       1 MOL1            1 RESIDUE      1      MOL     
@<SCITEGIC>MOL_PROPERTY
VM2 Rank
SciTegic.value.IntegerValue
3

@<SCITEGIC>MOL_PROPERTY
Conf_Id
SciTegic.value.IntegerValue
324

@<SCITEGIC>MOL_PROPERTY
Probability
SciTegic.value.DoubleValue
7.79

@<SCITEGIC>MOL_PROPERTY
Sum Probability
SciTegic.value.DoubleValue
50.12

@<SCITEGIC>MOL_PROPERTY
Delta G
SciTegic.value.DoubleValue
0.873

@<SCITEGIC>MOL_PROPERTY
G
SciTegic.value.DoubleValue
-16.125

@<SCITEGIC>MOL_PROPERTY
E
SciTegic.value.DoubleValue
-35.803

@<SCITEGIC>MOL_PROPERTY
-TS
SciTegic.value.DoubleValue
19.677

@<SCITEGIC>MOL_PROPERTY
U+W
SciTegic.value.DoubleValue
-53.688

@<SCITEGIC>MOL_PROPERTY
U
SciTegic.value.DoubleValue
6.782

@<SCITEGIC>MOL_PROPERTY
W
SciTegic.value.DoubleValue
-60.470

@<SCITEGIC>MOL_PROPERTY
W(PB)
SciTegic.value.DoubleValue
-62.789

@<SCITEGIC>MOL_PROPERTY
W(SA)
SciTegic.value.DoubleValue
2.320

@<SCITEGIC>MOL_PROPERTY
Valence
SciTegic.value.DoubleValue
7.621

@<SCITEGIC>MOL_PROPERTY
Coulomb
SciTegic.value.DoubleValue
-1.711

@<SCITEGIC>MOL_PROPERTY
VdW
SciTegic.value.DoubleValue
0.872

@<SCITEGIC>MOL_PROPERTY
VdW6
SciTegic.value.DoubleValue
-7.188

@<SCITEGIC>MOL_PROPERTY
VdW12
SciTegic.value.DoubleValue
8.060

@<SCITEGIC>MOL_PROPERTY
Bond
SciTegic.value.DoubleValue
0.142

@<SCITEGIC>MOL_PROPERTY
Angle
SciTegic.value.DoubleValue
2.504

@<SCITEGIC>MOL_PROPERTY
Pdih
SciTegic.value.DoubleValue
4.974

@<SCITEGIC>MOL_PROPERTY
Idih
SciTegic.value.DoubleValue
0.001

@<SCITEGIC>MOL_PROPERTY
Tether
SciTegic.value.DoubleValue
0.000

@<TRIPOS>MOLECULE
guest-s21_vm2.mol2 : vm2 ligand conformer 4
          22          21           1
SMALL
USER_CHARGES
 
@<TRIPOS>ATOM
       1    C1      19.996131   19.032791   25.987445 C.2        1 MOL1         0.6145
       2    O1      20.322464   20.079944   26.510367 O.co2      1 MOL1        -0.6735
       3    O2      20.420623   17.947576   26.331787 O.co2      1 MOL1        -0.6735
       4    C2      19.015459   19.085344   24.821321 C.3        1 MOL1        -0.1985
       5    H1      18.331845   19.926281   24.988989 H          1 MOL1         0.0740
       6    H2      18.413353   18.168972   24.840827 H          1 MOL1         0.0740
       7    C3      19.719141   19.232752   23.449681 C.3        1 MOL1        -0.1882
       8    H3      20.324642   20.149634   23.449425 H          1 MOL1         0.0742
       9    H4      20.411541   18.391500   23.314241 H          1 MOL1         0.0742
      10    C4      18.702217   19.278782   22.285719 C.3        1 MOL1        -0.1880
      11    H5      17.973670   20.077862   22.479760 H          1 MOL1         0.0742
      12    H6      18.132609   18.339898   22.253595 H          1 MOL1         0.0742
      13    C5      19.355013   19.535706   20.906805 C.3        1 MOL1        -0.1880
      14    H7      18.557083   19.677879   20.165172 H          1 MOL1         0.0742
      15    H8      19.921606   20.476435   20.937350 H          1 MOL1         0.0742
      16    C6      20.276677   18.387442   20.437431 C.3        1 MOL1        -0.1856
      17    H9      19.724876   17.437533   20.457298 H          1 MOL1         0.0742
      18    H10     21.126355   18.279229   21.124232 H          1 MOL1         0.0742
      19    C7      20.812276   18.638663   19.013445 C.3        1 MOL1        -0.2871
      20    H11     21.467123   17.816796   18.695987 H          1 MOL1         0.0754
      21    H12     21.392183   19.569946   18.970966 H          1 MOL1         0.0754
      22    H13     19.988924   18.713987   18.291105 H          1 MOL1         0.0754
@<TRIPOS>BOND
    1     1     2    1
    2     1     3    2
    3     1     4    1
    4     4     5    1
    5     4     6    1
    6     4     7    1
    7     7     8    1
    8     7     9    1
    9     7    10    1
   10    10    11    1
   11    10    12    1
   12    10    13    1
   13    13    14    1
   14    13    15    1
   15    13    16    1
   16    16    17    1
   17    16    18    1
   18    16    19    1
   19    19    20    1
   20    19    21    1
   21    19    22    1
@<TRIPOS>SUBSTRUCTURE
       1 MOL1            1 RESIDUE      1      MOL     
@<SCITEGIC>MOL_PROPERTY
VM2 Rank
SciTegic.value.IntegerValue
4

@<SCITEGIC>MOL_PROPERTY
Conf_Id
SciTegic.value.IntegerValue
132

@<SCITEGIC>MOL_PROPERTY
Probability
SciTegic.value.DoubleValue
7.72

@<SCITEGIC>MOL_PROPERTY
Sum Probability
SciTegic.value.DoubleValue
57.84

@<SCITEGIC>MOL_PROPERTY
Delta G
SciTegic.value.DoubleValue
0.878

@<SCITEGIC>MOL_PROPERTY
G
SciTegic.value.DoubleValue
-16.120

@<SCITEGIC>MOL_PROPERTY
E
SciTegic.value.DoubleValue
-35.794

@<SCITEGIC>MOL_PROPERTY
-TS
SciTegic.value.DoubleValue
19.673

@<SCITEGIC>MOL_PROPERTY
U+W
SciTegic.value.DoubleValue
-53.679

@<SCITEGIC>MOL_PROPERTY
U
SciTegic.value.DoubleValue
7.026

@<SCITEGIC>MOL_PROPERTY
W
SciTegic.value.DoubleValue
-60.705

@<SCITEGIC>MOL_PROPERTY
W(PB)
SciTegic.value.DoubleValue
-63.009

@<SCITEGIC>MOL_PROPERTY
W(SA)
SciTegic.value.DoubleValue
2.304

@<SCITEGIC>MOL_PROPERTY
Valence
SciTegic.value.DoubleValue
7.638

@<SCITEGIC>MOL_PROPERTY
Coulomb
SciTegic.value.DoubleValue
-1.488

@<SCITEGIC>MOL_PROPERTY
VdW
SciTegic.value.DoubleValue
0.877

@<SCITEGIC>MOL_PROPERTY
VdW6
SciTegic.value.DoubleValue
-7.165

@<SCITEGIC>MOL_PROPERTY
VdW12
SciTegic.value.DoubleValue
8.042

@<SCITEGIC>MOL_PROPERTY
Bond
SciTegic.value.DoubleValue
0.134

@<SCITEGIC>MOL_PROPERTY
Angle
SciTegic.value.DoubleValue
2.513

@<SCITEGIC>MOL_PROPERTY
Pdih
SciTegic.value.DoubleValue
4.990

@<SCITEGIC>MOL_PROPERTY
Idih
SciTegic.value.DoubleValue
0.001

@<SCITEGIC>MOL_PROPERTY
Tether
SciTegic.value.DoubleValue
0.000

@<TRIPOS>MOLECULE
guest-s21_vm2.mol2 : vm2 ligand conformer 5
          22          21           1
SMALL
USER_CHARGES
 
@<TRIPOS>ATOM
       1    C1      19.600367   19.027375   25.980230 C.2        1 MOL1         0.6145
       2    O1      19.226246   20.064898   26.490182 O.co2      1 MOL1        -0.6735
       3    O2      19.194553   17.930622   26.310235 O.co2      1 MOL1        -0.6735
       4    C2      20.620686   19.107534   24.850250 C.3        1 MOL1        -0.1985
       5    H1      21.246833   18.208174   24.892015 H          1 MOL1         0.0740
       6    H2      21.274253   19.967008   25.042006 H          1 MOL1         0.0740
       7    C3      19.963183   19.235984   23.454011 C.3        1 MOL1        -0.1882
       8    H3      19.299596   18.375995   23.294192 H          1 MOL1         0.0742
       9    H4      19.333025   20.135811   23.431330 H          1 MOL1         0.0742
      10    C4      21.019792   19.310470   22.327469 C.3        1 MOL1        -0.1880
      11    H5      21.615711   18.387570   22.316380 H          1 MOL1         0.0742
      12    H6      21.718689   20.129123   22.547274 H          1 MOL1         0.0742
      13    C5      20.410367   19.550095   20.925773 C.3        1 MOL1        -0.1880
      14    H7      19.817721   20.475088   20.935333 H          1 MOL1         0.0742
      15    H8      21.230346   19.714162   20.213284 H          1 MOL1         0.0742
      16    C6      19.537692   18.377434   20.424175 C.3        1 MOL1        -0.1856
      17    H9      18.667067   18.245959   21.079985 H          1 MOL1         0.0742
      18    H10     20.113972   17.442830   20.464471 H          1 MOL1         0.0742
      19    C7      19.047113   18.614589   18.981674 C.3        1 MOL1        -0.2871
      20    H11     19.893599   18.712429   18.289398 H          1 MOL1         0.0754
      21    H12     18.444123   19.529852   18.917778 H          1 MOL1         0.0754
      22    H13     18.426597   17.775417   18.641349 H          1 MOL1         0.0754
@<TRIPOS>BOND
    1     1     2    1
    2     1     3    2
    3     1     4    1
    4     4     5    1
    5     4     6    1
    6     4     7    1
    7     7     8    1
    8     7     9    1
    9     7    10    1
   10    10    11    1
   11    10    12    1
   12    10    13    1
   13    13    14    1
   14    13    15    1
   15    13    16    1
   16    16    17    1
   17    16    18    1
   18    16    19    1
   19    19    20    1
   20    19    21    1
   21    19    22    1
@<TRIPOS>SUBSTRUCTURE
       1 MOL1            1 RESIDUE      1      MOL     
@<SCITEGIC>MOL_PROPERTY
VM2 Rank
SciTegic.value.IntegerValue
5

@<SCITEGIC>MOL_PROPERTY
Conf_Id
SciTegic.value.IntegerValue
309

@<SCITEGIC>MOL_PROPERTY
Probability
SciTegic.value.DoubleValue
7.30

@<SCITEGIC>MOL_PROPERTY
Sum Probability
SciTegic.value.DoubleValue
65.14

@<SCITEGIC>MOL_PROPERTY
Delta G
SciTegic.value.DoubleValue
0.911

@<SCITEGIC>MOL_PROPERTY
G
SciTegic.value.DoubleValue
-16.087

@<SCITEGIC>MOL_PROPERTY
E
SciTegic.value.DoubleValue
-35.761

@<SCITEGIC>MOL_PROPERTY
-TS
SciTegic.value.DoubleValue
19.674

@<SCITEGIC>MOL_PROPERTY
U+W
SciTegic.value.DoubleValue
-53.646

@<SCITEGIC>MOL_PROPERTY
U
SciTegic.value.DoubleValue
7.026

@<SCITEGIC>MOL_PROPERTY
W
SciTegic.value.DoubleValue
-60.672

@<SCITEGIC>MOL_PROPERTY
W(PB)
SciTegic.value.DoubleValue
-62.965

@<SCITEGIC>MOL_PROPERTY
W(SA)
SciTegic.value.DoubleValue
2.292

@<SCITEGIC>MOL_PROPERTY
Valence
SciTegic.value.DoubleValue
7.638

@<SCITEGIC>MOL_PROPERTY
Coulomb
SciTegic.value.DoubleValue
-1.488

@<SCITEGIC>MOL_PROPERTY
VdW
SciTegic.value.DoubleValue
0.877

@<SCITEGIC>MOL_PROPERTY
VdW6
SciTegic.value.DoubleValue
-7.165

@<SCITEGIC>MOL_PROPERTY
VdW12
SciTegic.value.DoubleValue
8.042

@<SCITEGIC>MOL_PROPERTY
Bond
SciTegic.value.DoubleValue
0.134

@<SCITEGIC>MOL_PROPERTY
Angle
SciTegic.value.DoubleValue
2.513

@<SCITEGIC>MOL_PROPERTY
Pdih
SciTegic.value.DoubleValue
4.990

@<SCITEGIC>MOL_PROPERTY
Idih
SciTegic.value.DoubleValue
0.001

@<SCITEGIC>MOL_PROPERTY
Tether
SciTegic.value.DoubleValue
0.000

@<TRIPOS>MOLECULE
guest-s21_vm2.mol2 : vm2 ligand conformer 6
          22          21           1
SMALL
USER_CHARGES
 
@<TRIPOS>ATOM
       1    C1      19.732893   19.223310   26.094719 C.2        1 MOL1         0.6145
       2    O1      20.138776   20.291529   26.507780 O.co2      1 MOL1        -0.6735
       3    O2      19.790749   18.189745   26.730999 O.co2      1 MOL1        -0.6735
       4    C2      19.137847   19.172855   24.692012 C.3        1 MOL1        -0.1985
       5    H1      18.646185   20.133269   24.495720 H          1 MOL1         0.0740
       6    H2      18.358626   18.401289   24.679925 H          1 MOL1         0.0740
       7    C3      20.195903   18.880946   23.599556 C.3        1 MOL1        -0.1882
       8    H3      20.975204   19.654977   23.632941 H          1 MOL1         0.0742
       9    H4      20.687938   17.923019   23.818161 H          1 MOL1         0.0742
      10    C4      19.568606   18.835067   22.189329 C.3        1 MOL1        -0.1880
      11    H5      19.074053   19.793463   21.984243 H          1 MOL1         0.0742
      12    H6      18.791565   18.059115   22.158322 H          1 MOL1         0.0742
      13    C5      20.629420   18.547133   21.102117 C.3        1 MOL1        -0.1880
      14    H7      21.380817   19.348575   21.096466 H          1 MOL1         0.0742
      15    H8      21.163163   17.622072   21.359631 H          1 MOL1         0.0742
      16    C6      20.030514   18.389949   19.685109 C.3        1 MOL1        -0.1856
      17    H9      19.282853   17.584769   19.685390 H          1 MOL1         0.0742
      18    H10     20.827727   18.072707   18.998782 H          1 MOL1         0.0742
      19    C7      19.395292   19.688466   19.142380 C.3        1 MOL1        -0.2871
      20    H11     18.518077   19.982400   19.732126 H          1 MOL1         0.0754
      21    H12     19.066186   19.549916   18.104396 H          1 MOL1         0.0754
      22    H13     20.116303   20.516079   19.160684 H          1 MOL1         0.0754
@<TRIPOS>BOND
    1     1     2    1
    2     1     3    2
    3     1     4    1
    4     4     5    1
    5     4     6    1
    6     4     7    1
    7     7     8    1
    8     7     9    1
    9     7    10    1
   10    10    11    1
   11    10    12    1
   12    10    13    1
   13    13    14    1
   14    13    15    1
   15    13    16    1
   16    16    17    1
   17    16    18    1
   18    16    19    1
   19    19    20    1
   20    19    21    1
   21    19    22    1
@<TRIPOS>SUBSTRUCTURE
       1 MOL1            1 RESIDUE      1      MOL     
@<SCITEGIC>MOL_PROPERTY
VM2 Rank
SciTegic.value.IntegerValue
6

@<SCITEGIC>MOL_PROPERTY
Conf_Id
SciTegic.value.IntegerValue
131

@<SCITEGIC>MOL_PROPERTY
Probability
SciTegic.value.DoubleValue
6.71

@<SCITEGIC>MOL_PROPERTY
Sum Probability
SciTegic.value.DoubleValue
71.85

@<SCITEGIC>MOL_PROPERTY
Delta G
SciTegic.value.DoubleValue
0.961

@<SCITEGIC>MOL_PROPERTY
G
SciTegic.value.DoubleValue
-16.037

@<SCITEGIC>MOL_PROPERTY
E
SciTegic.value.DoubleValue
-35.714

@<SCITEGIC>MOL_PROPERTY
-TS
SciTegic.value.DoubleValue
19.677

@<SCITEGIC>MOL_PROPERTY
U+W
SciTegic.value.DoubleValue
-53.599

@<SCITEGIC>MOL_PROPERTY
U
SciTegic.value.DoubleValue
6.751

@<SCITEGIC>MOL_PROPERTY
W
SciTegic.value.DoubleValue
-60.350

@<SCITEGIC>MOL_PROPERTY
W(PB)
SciTegic.value.DoubleValue
-62.659

@<SCITEGIC>MOL_PROPERTY
W(SA)
SciTegic.value.DoubleValue
2.309

@<SCITEGIC>MOL_PROPERTY
Valence
SciTegic.value.DoubleValue
7.602

@<SCITEGIC>MOL_PROPERTY
Coulomb
SciTegic.value.DoubleValue
-1.744

@<SCITEGIC>MOL_PROPERTY
VdW
SciTegic.value.DoubleValue
0.893

@<SCITEGIC>MOL_PROPERTY
VdW6
SciTegic.value.DoubleValue
-7.110

@<SCITEGIC>MOL_PROPERTY
VdW12
SciTegic.value.DoubleValue
8.004

@<SCITEGIC>MOL_PROPERTY
Bond
SciTegic.value.DoubleValue
0.131

@<SCITEGIC>MOL_PROPERTY
Angle
SciTegic.value.DoubleValue
2.489

@<SCITEGIC>MOL_PROPERTY
Pdih
SciTegic.value.DoubleValue
4.982

@<SCITEGIC>MOL_PROPERTY
Idih
SciTegic.value.DoubleValue
0.001

@<SCITEGIC>MOL_PROPERTY
Tether
SciTegic.value.DoubleValue
0.000

@<TRIPOS>MOLECULE
guest-s21_vm2.mol2 : vm2 ligand conformer 7
          22          21           1
SMALL
USER_CHARGES
 
@<TRIPOS>ATOM
       1    C1      19.743507   19.027866   26.102220 C.2        1 MOL1         0.6145
       2    O1      19.687091   20.107269   26.657344 O.co2      1 MOL1        -0.6735
       3    O2      20.260330   18.044299   26.594096 O.co2      1 MOL1        -0.6735
       4    C2      19.152301   18.906530   24.702233 C.3        1 MOL1        -0.1985
       5    H1      18.294403   19.586284   24.634496 H          1 MOL1         0.0740
       6    H2      18.767996   17.886490   24.581891 H          1 MOL1         0.0740
       7    C3      20.177164   19.226669   23.586294 C.3        1 MOL1        -0.1882
       8    H3      20.561970   20.246011   23.729043 H          1 MOL1         0.0742
       9    H4      21.035346   18.546141   23.675477 H          1 MOL1         0.0742
      10    C4      19.554419   19.096676   22.179297 C.3        1 MOL1        -0.1880
      11    H5      18.698218   19.779475   22.092357 H          1 MOL1         0.0742
      12    H6      19.167171   18.077608   22.050047 H          1 MOL1         0.0742
      13    C5      20.582394   19.413685   21.068877 C.3        1 MOL1        -0.1880
      14    H7      21.011990   20.407946   21.252792 H          1 MOL1         0.0742
      15    H8      21.416004   18.700045   21.121313 H          1 MOL1         0.0742
      16    C6      19.975874   19.396590   19.646502 C.3        1 MOL1        -0.1856
      17    H9      20.736975   19.744777   18.934656 H          1 MOL1         0.0742
      18    H10     19.145599   20.113932   19.588409 H          1 MOL1         0.0742
      19    C7      19.486921   17.999417   19.207137 C.3        1 MOL1        -0.2871
      20    H11     20.293037   17.258370   19.285620 H          1 MOL1         0.0754
      21    H12     19.149107   18.021933   18.162966 H          1 MOL1         0.0754
      22    H13     18.644142   17.658333   19.821212 H          1 MOL1         0.0754
@<TRIPOS>BOND
    1     1     2    1
    2     1     3    2
    3     1     4    1
    4     4     5    1
    5     4     6    1
    6     4     7    1
    7     7     8    1
    8     7     9    1
    9     7    10    1
   10    10    11    1
   11    10    12    1
   12    10    13    1
   13    13    14    1
   14    13    15    1
   15    13    16    1
   16    16    17    1
   17    16    18    1
   18    16    19    1
   19    19    20    1
   20    19    21    1
   21    19    22    1
@<TRIPOS>SUBSTRUCTURE
       1 MOL1            1 RESIDUE      1      MOL     
@<SCITEGIC>MOL_PROPERTY
VM2 Rank
SciTegic.value.IntegerValue
7

@<SCITEGIC>MOL_PROPERTY
Conf_Id
SciTegic.value.IntegerValue
99

@<SCITEGIC>MOL_PROPERTY
Probability
SciTegic.value.DoubleValue
6.33

@<SCITEGIC>MOL_PROPERTY
Sum Probability
SciTegic.value.DoubleValue
78.18

@<SCITEGIC>MOL_PROPERTY
Delta G
SciTegic.value.DoubleValue
0.996

@<SCITEGIC>MOL_PROPERTY
G
SciTegic.value.DoubleValue
-16.002

@<SCITEGIC>MOL_PROPERTY
E
SciTegic.value.DoubleValue
-35.679

@<SCITEGIC>MOL_PROPERTY
-TS
SciTegic.value.DoubleValue
19.677

@<SCITEGIC>MOL_PROPERTY
U+W
SciTegic.value.DoubleValue
-53.564

@<SCITEGIC>MOL_PROPERTY
U
SciTegic.value.DoubleValue
6.751

@<SCITEGIC>MOL_PROPERTY
W
SciTegic.value.DoubleValue
-60.315

@<SCITEGIC>MOL_PROPERTY
W(PB)
SciTegic.value.DoubleValue
-62.637

@<SCITEGIC>MOL_PROPERTY
W(SA)
SciTegic.value.DoubleValue
2.321

@<SCITEGIC>MOL_PROPERTY
Valence
SciTegic.value.DoubleValue
7.602

@<SCITEGIC>MOL_PROPERTY
Coulomb
SciTegic.value.DoubleValue
-1.744

@<SCITEGIC>MOL_PROPERTY
VdW
SciTegic.value.DoubleValue
0.893

@<SCITEGIC>MOL_PROPERTY
VdW6
SciTegic.value.DoubleValue
-7.110

@<SCITEGIC>MOL_PROPERTY
VdW12
SciTegic.value.DoubleValue
8.004

@<SCITEGIC>MOL_PROPERTY
Bond
SciTegic.value.DoubleValue
0.131

@<SCITEGIC>MOL_PROPERTY
Angle
SciTegic.value.DoubleValue
2.489

@<SCITEGIC>MOL_PROPERTY
Pdih
SciTegic.value.DoubleValue
4.982

@<SCITEGIC>MOL_PROPERTY
Idih
SciTegic.value.DoubleValue
0.001

@<SCITEGIC>MOL_PROPERTY
Tether
SciTegic.value.DoubleValue
0.000

@<TRIPOS>MOLECULE
guest-s21_vm2.mol2 : vm2 ligand conformer 8
          22          21           1
SMALL
USER_CHARGES
 
@<TRIPOS>ATOM
       1    C1      19.995943   19.018056   25.802307 C.2        1 MOL1         0.6145
       2    O1      20.594724   19.981693   26.237931 O.co2      1 MOL1        -0.6735
       3    O2      20.375581   17.871908   25.940192 O.co2      1 MOL1        -0.6735
       4    C2      18.686329   19.261802   25.057572 C.3        1 MOL1        -0.1985
       5    H1      18.102195   19.978120   25.647246 H          1 MOL1         0.0740
       6    H2      18.114948   18.325823   25.038328 H          1 MOL1         0.0740
       7    C3      18.871587   19.805858   23.617198 C.3        1 MOL1        -0.1882
       8    H3      17.888774   20.080671   23.210876 H          1 MOL1         0.0742
       9    H4      19.469104   20.727556   23.650355 H          1 MOL1         0.0742
      10    C4      19.543077   18.780377   22.676415 C.3        1 MOL1        -0.1880
      11    H5      18.949132   17.856326   22.657051 H          1 MOL1         0.0742
      12    H6      20.534661   18.513312   23.067370 H          1 MOL1         0.0742
      13    C5      19.688746   19.330817   21.241408 C.3        1 MOL1        -0.1880
      14    H7      18.698118   19.595934   20.847167 H          1 MOL1         0.0742
      15    H8      20.282810   20.254825   21.261603 H          1 MOL1         0.0742
      16    C6      20.359953   18.307583   20.301453 C.3        1 MOL1        -0.1856
      17    H9      19.767625   17.382361   20.277514 H          1 MOL1         0.0742
      18    H10     21.352128   18.041442   20.691659 H          1 MOL1         0.0742
      19    C7      20.504059   18.860906   18.869522 C.3        1 MOL1        -0.2871
      20    H11     19.522741   19.106184   18.442615 H          1 MOL1         0.0754
      21    H12     20.982937   18.120893   18.215197 H          1 MOL1         0.0754
      22    H13     21.119170   19.770272   18.859914 H          1 MOL1         0.0754
@<TRIPOS>BOND
    1     1     2    1
    2     1     3    2
    3     1     4    1
    4     4     5    1
    5     4     6    1
    6     4     7    1
    7     7     8    1
    8     7     9    1
    9     7    10    1
   10    10    11    1
   11    10    12    1
   12    10    13    1
   13    13    14    1
   14    13    15    1
   15    13    16    1
   16    16    17    1
   17    16    18    1
   18    16    19    1
   19    19    20    1
   20    19    21    1
   21    19    22    1
@<TRIPOS>SUBSTRUCTURE
       1 MOL1            1 RESIDUE      1      MOL     
@<SCITEGIC>MOL_PROPERTY
VM2 Rank
SciTegic.value.IntegerValue
8

@<SCITEGIC>MOL_PROPERTY
Conf_Id
SciTegic.value.IntegerValue
134

@<SCITEGIC>MOL_PROPERTY
Probability
SciTegic.value.DoubleValue
2.99

@<SCITEGIC>MOL_PROPERTY
Sum Probability
SciTegic.value.DoubleValue
81.17

@<SCITEGIC>MOL_PROPERTY
Delta G
SciTegic.value.DoubleValue
1.443

@<SCITEGIC>MOL_PROPERTY
G
SciTegic.value.DoubleValue
-15.555

@<SCITEGIC>MOL_PROPERTY
E
SciTegic.value.DoubleValue
-35.435

@<SCITEGIC>MOL_PROPERTY
-TS
SciTegic.value.DoubleValue
19.880

@<SCITEGIC>MOL_PROPERTY
U+W
SciTegic.value.DoubleValue
-53.320

@<SCITEGIC>MOL_PROPERTY
U
SciTegic.value.DoubleValue
7.937

@<SCITEGIC>MOL_PROPERTY
W
SciTegic.value.DoubleValue
-61.257

@<SCITEGIC>MOL_PROPERTY
W(PB)
SciTegic.value.DoubleValue
-63.561

@<SCITEGIC>MOL_PROPERTY
W(SA)
SciTegic.value.DoubleValue
2.304

@<SCITEGIC>MOL_PROPERTY
Valence
SciTegic.value.DoubleValue
7.358

@<SCITEGIC>MOL_PROPERTY
Coulomb
SciTegic.value.DoubleValue
-0.021

@<SCITEGIC>MOL_PROPERTY
VdW
SciTegic.value.DoubleValue
0.600

@<SCITEGIC>MOL_PROPERTY
VdW6
SciTegic.value.DoubleValue
-7.363

@<SCITEGIC>MOL_PROPERTY
VdW12
SciTegic.value.DoubleValue
7.964

@<SCITEGIC>MOL_PROPERTY
Bond
SciTegic.value.DoubleValue
0.121

@<SCITEGIC>MOL_PROPERTY
Angle
SciTegic.value.DoubleValue
2.425

@<SCITEGIC>MOL_PROPERTY
Pdih
SciTegic.value.DoubleValue
4.811

@<SCITEGIC>MOL_PROPERTY
Idih
SciTegic.value.DoubleValue
0.001

@<SCITEGIC>MOL_PROPERTY
Tether
SciTegic.value.DoubleValue
0.000

@<TRIPOS>MOLECULE
guest-s21_vm2.mol2 : vm2 ligand conformer 9
          22          21           1
SMALL
USER_CHARGES
 
@<TRIPOS>ATOM
       1    C1      19.540646   19.147415   25.784878 C.2        1 MOL1         0.6145
       2    O1      19.508095   20.290329   26.196688 O.co2      1 MOL1        -0.6735
       3    O2      18.607238   18.374234   25.872808 O.co2      1 MOL1        -0.6735
       4    C2      20.831905   18.652315   25.139389 C.3        1 MOL1        -0.1985
       5    H1      20.826475   17.555561   25.141728 H          1 MOL1         0.0740
       6    H2      21.661845   18.966921   25.783022 H          1 MOL1         0.0740
       7    C3      21.061989   19.183649   23.700729 C.3        1 MOL1        -0.1882
       8    H3      21.036822   20.282252   23.710140 H          1 MOL1         0.0742
       9    H4      22.068491   18.893291   23.370293 H          1 MOL1         0.0742
      10    C4      20.020351   18.644875   22.694597 C.3        1 MOL1        -0.1880
      11    H5      19.011570   18.946182   23.009216 H          1 MOL1         0.0742
      12    H6      20.040227   17.546421   22.698702 H          1 MOL1         0.0742
      13    C5      20.287022   19.160863   21.264179 C.3        1 MOL1        -0.1880
      14    H7      20.266941   20.259360   21.260878 H          1 MOL1         0.0742
      15    H8      21.294205   18.858348   20.946176 H          1 MOL1         0.0742
      16    C6      19.246747   18.623824   20.258960 C.3        1 MOL1        -0.1856
      17    H9      18.237997   18.926183   20.572819 H          1 MOL1         0.0742
      18    H10     19.264998   17.525131   20.258378 H          1 MOL1         0.0742
      19    C7      19.516009   19.141496   18.831771 C.3        1 MOL1        -0.2871
      20    H11     20.507188   18.826360   18.480134 H          1 MOL1         0.0754
      21    H12     19.472454   20.237986   18.796959 H          1 MOL1         0.0754
      22    H13     18.767436   18.750153   18.130648 H          1 MOL1         0.0754
@<TRIPOS>BOND
    1     1     2    1
    2     1     3    2
    3     1     4    1
    4     4     5    1
    5     4     6    1
    6     4     7    1
    7     7     8    1
    8     7     9    1
    9     7    10    1
   10    10    11    1
   11    10    12    1
   12    10    13    1
   13    13    14    1
   14    13    15    1
   15    13    16    1
   16    16    17    1
   17    16    18    1
   18    16    19    1
   19    19    20    1
   20    19    21    1
   21    19    22    1
@<TRIPOS>SUBSTRUCTURE
       1 MOL1            1 RESIDUE      1      MOL     
@<SCITEGIC>MOL_PROPERTY
VM2 Rank
SciTegic.value.IntegerValue
9

@<SCITEGIC>MOL_PROPERTY
Conf_Id
SciTegic.value.IntegerValue
297

@<SCITEGIC>MOL_PROPERTY
Probability
SciTegic.value.DoubleValue
2.89

@<SCITEGIC>MOL_PROPERTY
Sum Probability
SciTegic.value.DoubleValue
84.06

@<SCITEGIC>MOL_PROPERTY
Delta G
SciTegic.value.DoubleValue
1.463

@<SCITEGIC>MOL_PROPERTY
G
SciTegic.value.DoubleValue
-15.535

@<SCITEGIC>MOL_PROPERTY
E
SciTegic.value.DoubleValue
-35.414

@<SCITEGIC>MOL_PROPERTY
-TS
SciTegic.value.DoubleValue
19.880

@<SCITEGIC>MOL_PROPERTY
U+W
SciTegic.value.DoubleValue
-53.299

@<SCITEGIC>MOL_PROPERTY
U
SciTegic.value.DoubleValue
7.937

@<SCITEGIC>MOL_PROPERTY
W
SciTegic.value.DoubleValue
-61.236

@<SCITEGIC>MOL_PROPERTY
W(PB)
SciTegic.value.DoubleValue
-63.533

@<SCITEGIC>MOL_PROPERTY
W(SA)
SciTegic.value.DoubleValue
2.297

@<SCITEGIC>MOL_PROPERTY
Valence
SciTegic.value.DoubleValue
7.358

@<SCITEGIC>MOL_PROPERTY
Coulomb
SciTegic.value.DoubleValue
-0.022

@<SCITEGIC>MOL_PROPERTY
VdW
SciTegic.value.DoubleValue
0.600

@<SCITEGIC>MOL_PROPERTY
VdW6
SciTegic.value.DoubleValue
-7.363

@<SCITEGIC>MOL_PROPERTY
VdW12
SciTegic.value.DoubleValue
7.963

@<SCITEGIC>MOL_PROPERTY
Bond
SciTegic.value.DoubleValue
0.121

@<SCITEGIC>MOL_PROPERTY
Angle
SciTegic.value.DoubleValue
2.425

@<SCITEGIC>MOL_PROPERTY
Pdih
SciTegic.value.DoubleValue
4.811

@<SCITEGIC>MOL_PROPERTY
Idih
SciTegic.value.DoubleValue
0.000

@<SCITEGIC>MOL_PROPERTY
Tether
SciTegic.value.DoubleValue
0.000

@<TRIPOS>MOLECULE
guest-s21_vm2.mol2 : vm2 ligand conformer 10
          22          21           1
SMALL
USER_CHARGES
 
@<TRIPOS>ATOM
       1    C1      19.825381   19.116825   26.207004 C.2        1 MOL1         0.6145
       2    O1      20.530992   20.106753   26.230583 O.co2      1 MOL1        -0.6735
       3    O2      19.408581   18.575168   27.211398 O.co2      1 MOL1        -0.6735
       4    C2      19.426686   18.500734   24.864991 C.3        1 MOL1        -0.1985
       5    H1      18.331184   18.481111   24.826790 H          1 MOL1         0.0740
       6    H2      19.766368   17.458353   24.869937 H          1 MOL1         0.0740
       7    C3      19.982168   19.227344   23.611241 C.3        1 MOL1        -0.1882
       8    H3      19.643301   20.272637   23.615732 H          1 MOL1         0.0742
       9    H4      21.079786   19.248795   23.658813 H          1 MOL1         0.0742
      10    C4      19.532172   18.540948   22.303236 C.3        1 MOL1        -0.1880
      11    H5      18.434598   18.520689   22.257947 H          1 MOL1         0.0742
      12    H6      19.871943   17.496112   22.301114 H          1 MOL1         0.0742
      13    C5      20.085884   19.265234   21.057395 C.3        1 MOL1        -0.1880
      14    H7      19.746416   20.310167   21.059105 H          1 MOL1         0.0742
      15    H8      21.183471   19.285713   21.102227 H          1 MOL1         0.0742
      16    C6      19.636535   18.579878   19.749926 C.3        1 MOL1        -0.1856
      17    H9      18.538984   18.559368   19.700567 H          1 MOL1         0.0742
      18    H10     19.976055   17.534812   19.743729 H          1 MOL1         0.0742
      19    C7      20.191600   19.306116   18.508226 C.3        1 MOL1        -0.2871
      20    H11     19.841633   20.346136   18.472333 H          1 MOL1         0.0754
      21    H12     19.862536   18.805865   17.588141 H          1 MOL1         0.0754
      22    H13     21.289458   19.313844   18.515782 H          1 MOL1         0.0754
@<TRIPOS>BOND
    1     1     2    1
    2     1     3    2
    3     1     4    1
    4     4     5    1
    5     4     6    1
    6     4     7    1
    7     7     8    1
    8     7     9    1
    9     7    10    1
   10    10    11    1
   11    10    12    1
   12    10    13    1
   13    13    14    1
   14    13    15    1
   15    13    16    1
   16    16    17    1
   17    16    18    1
   18    16    19    1
   19    19    20    1
   20    19    21    1
   21    19    22    1
@<TRIPOS>SUBSTRUCTURE
       1 MOL1            1 RESIDUE      1      MOL     
@<SCITEGIC>MOL_PROPERTY
VM2 Rank
SciTegic.value.IntegerValue
10

@<SCITEGIC>MOL_PROPERTY
Conf_Id
SciTegic.value.IntegerValue
0

@<SCITEGIC>MOL_PROPERTY
Probability
SciTegic.value.DoubleValue
1.62

@<SCITEGIC>MOL_PROPERTY
Sum Probability
SciTegic.value.DoubleValue
85.69

@<SCITEGIC>MOL_PROPERTY
Delta G
SciTegic.value.DoubleValue
1.808

@<SCITEGIC>MOL_PROPERTY
G
SciTegic.value.DoubleValue
-15.190

@<SCITEGIC>MOL_PROPERTY
E
SciTegic.value.DoubleValue
-35.274

@<SCITEGIC>MOL_PROPERTY
-TS
SciTegic.value.DoubleValue
20.084

@<SCITEGIC>MOL_PROPERTY
U+W
SciTegic.value.DoubleValue
-53.159

@<SCITEGIC>MOL_PROPERTY
U
SciTegic.value.DoubleValue
6.763

@<SCITEGIC>MOL_PROPERTY
W
SciTegic.value.DoubleValue
-59.922

@<SCITEGIC>MOL_PROPERTY
W(PB)
SciTegic.value.DoubleValue
-62.256

@<SCITEGIC>MOL_PROPERTY
W(SA)
SciTegic.value.DoubleValue
2.334

@<SCITEGIC>MOL_PROPERTY
Valence
SciTegic.value.DoubleValue
7.600

@<SCITEGIC>MOL_PROPERTY
Coulomb
SciTegic.value.DoubleValue
-2.139

@<SCITEGIC>MOL_PROPERTY
VdW
SciTegic.value.DoubleValue
1.302

@<SCITEGIC>MOL_PROPERTY
VdW6
SciTegic.value.DoubleValue
-6.786

@<SCITEGIC>MOL_PROPERTY
VdW12
SciTegic.value.DoubleValue
8.088

@<SCITEGIC>MOL_PROPERTY
Bond
SciTegic.value.DoubleValue
0.134

@<SCITEGIC>MOL_PROPERTY
Angle
SciTegic.value.DoubleValue
2.720

@<SCITEGIC>MOL_PROPERTY
Pdih
SciTegic.value.DoubleValue
4.746

@<SCITEGIC>MOL_PROPERTY
Idih
SciTegic.value.DoubleValue
0.000

@<SCITEGIC>MOL_PROPERTY
Tether
SciTegic.value.DoubleValue
0.000

@<TRIPOS>MOLECULE
guest-s21_vm2.mol2 : vm2 ligand conformer 11
          22          21           1
SMALL
USER_CHARGES
 
@<TRIPOS>ATOM
       1    C1      19.582497   19.113322   25.922904 C.2        1 MOL1         0.6145
       2    O1      19.591723   20.159762   26.540511 O.co2      1 MOL1        -0.6735
       3    O2      19.726524   18.024313   26.442377 O.co2      1 MOL1        -0.6735
       4    C2      19.402987   19.171737   24.410132 C.3        1 MOL1        -0.1985
       5    H1      18.764595   20.032038   24.176109 H          1 MOL1         0.0740
       6    H2      18.859950   18.270616   24.103567 H          1 MOL1         0.0740
       7    C3      20.750013   19.282838   23.649769 C.3        1 MOL1        -0.1882
       8    H3      21.307432   20.144362   24.042773 H          1 MOL1         0.0742
       9    H4      21.363331   18.395376   23.858407 H          1 MOL1         0.0742
      10    C4      20.582226   19.455567   22.121426 C.3        1 MOL1        -0.1880
      11    H5      21.571917   19.633017   21.679057 H          1 MOL1         0.0742
      12    H6      19.985547   20.355672   21.923495 H          1 MOL1         0.0742
      13    C5      19.934994   18.228589   21.434009 C.3        1 MOL1        -0.1880
      14    H7      20.472629   17.321110   21.740848 H          1 MOL1         0.0742
      15    H8      18.898403   18.108642   21.774966 H          1 MOL1         0.0742
      16    C6      19.953214   18.312986   19.890081 C.3        1 MOL1        -0.1856
      17    H9      19.578323   17.364939   19.480361 H          1 MOL1         0.0742
      18    H10     20.988195   18.416226   19.535923 H          1 MOL1         0.0742
      19    C7      19.095822   19.469885   19.332792 C.3        1 MOL1        -0.2871
      20    H11     19.072494   19.436678   18.235866 H          1 MOL1         0.0754
      21    H12     19.501003   20.446099   19.627164 H          1 MOL1         0.0754
      22    H13     18.061790   19.402384   19.695206 H          1 MOL1         0.0754
@<TRIPOS>BOND
    1     1     2    1
    2     1     3    2
    3     1     4    1
    4     4     5    1
    5     4     6    1
    6     4     7    1
    7     7     8    1
    8     7     9    1
    9     7    10    1
   10    10    11    1
   11    10    12    1
   12    10    13    1
   13    13    14    1
   14    13    15    1
   15    13    16    1
   16    16    17    1
   17    16    18    1
   18    16    19    1
   19    19    20    1
   20    19    21    1
   21    19    22    1
@<TRIPOS>SUBSTRUCTURE
       1 MOL1            1 RESIDUE      1      MOL     
@<SCITEGIC>MOL_PROPERTY
VM2 Rank
SciTegic.value.IntegerValue
11

@<SCITEGIC>MOL_PROPERTY
Conf_Id
SciTegic.value.IntegerValue
148

@<SCITEGIC>MOL_PROPERTY
Probability
SciTegic.value.DoubleValue
1.62

@<SCITEGIC>MOL_PROPERTY
Sum Probability
SciTegic.value.DoubleValue
87.31

@<SCITEGIC>MOL_PROPERTY
Delta G
SciTegic.value.DoubleValue
1.809

@<SCITEGIC>MOL_PROPERTY
G
SciTegic.value.DoubleValue
-15.189

@<SCITEGIC>MOL_PROPERTY
E
SciTegic.value.DoubleValue
-34.999

@<SCITEGIC>MOL_PROPERTY
-TS
SciTegic.value.DoubleValue
19.810

@<SCITEGIC>MOL_PROPERTY
U+W
SciTegic.value.DoubleValue
-52.884

@<SCITEGIC>MOL_PROPERTY
U
SciTegic.value.DoubleValue
7.600

@<SCITEGIC>MOL_PROPERTY
W
SciTegic.value.DoubleValue
-60.484

@<SCITEGIC>MOL_PROPERTY
W(PB)
SciTegic.value.DoubleValue
-62.769

@<SCITEGIC>MOL_PROPERTY
W(SA)
SciTegic.value.DoubleValue
2.284

@<SCITEGIC>MOL_PROPERTY
Valence
SciTegic.value.DoubleValue
8.094

@<SCITEGIC>MOL_PROPERTY
Coulomb
SciTegic.value.DoubleValue
-1.473

@<SCITEGIC>MOL_PROPERTY
VdW
SciTegic.value.DoubleValue
0.979

@<SCITEGIC>MOL_PROPERTY
VdW6
SciTegic.value.DoubleValue
-7.827

@<SCITEGIC>MOL_PROPERTY
VdW12
SciTegic.value.DoubleValue
8.806

@<SCITEGIC>MOL_PROPERTY
Bond
SciTegic.value.DoubleValue
0.173

@<SCITEGIC>MOL_PROPERTY
Angle
SciTegic.value.DoubleValue
2.687

@<SCITEGIC>MOL_PROPERTY
Pdih
SciTegic.value.DoubleValue
5.233

@<SCITEGIC>MOL_PROPERTY
Idih
SciTegic.value.DoubleValue
0.001

@<SCITEGIC>MOL_PROPERTY
Tether
SciTegic.value.DoubleValue
0.000

@<TRIPOS>MOLECULE
guest-s21_vm2.mol2 : vm2 ligand conformer 12
          22          21           1
SMALL
USER_CHARGES
 
@<TRIPOS>ATOM
       1    C1      19.728956   19.210500   25.988246 C.2        1 MOL1         0.6145
       2    O1      20.054788   20.327841   26.337410 O.co2      1 MOL1        -0.6735
       3    O2      19.720781   18.249103   26.731356 O.co2      1 MOL1        -0.6735
       4    C2      19.330112   18.998402   24.532147 C.3        1 MOL1        -0.1985
       5    H1      18.840966   19.915135   24.184582 H          1 MOL1         0.0740
       6    H2      18.582552   18.196912   24.497727 H          1 MOL1         0.0740
       7    C3      20.537391   18.643293   23.625510 C.3        1 MOL1        -0.1882
       8    H3      21.256694   19.473889   23.629044 H          1 MOL1         0.0742
       9    H4      21.059810   17.779373   24.059291 H          1 MOL1         0.0742
      10    C4      20.140976   18.300658   22.169425 C.3        1 MOL1        -0.1880
      11    H5      19.415769   17.475587   22.169952 H          1 MOL1         0.0742
      12    H6      21.035054   17.929041   21.652845 H          1 MOL1         0.0742
      13    C5      19.560635   19.506254   21.389837 C.3        1 MOL1        -0.1880
      14    H7      18.664701   19.876940   21.903615 H          1 MOL1         0.0742
      15    H8      20.285204   20.331905   21.390977 H          1 MOL1         0.0742
      16    C6      19.168731   19.164432   19.933240 C.3        1 MOL1        -0.1856
      17    H9      18.644184   20.026760   19.499090 H          1 MOL1         0.0742
      18    H10     18.452677   18.331053   19.927185 H          1 MOL1         0.0742
      19    C7      20.377630   18.818517   19.036830 C.3        1 MOL1        -0.2871
      20    H11     20.864618   17.890035   19.359608 H          1 MOL1         0.0754
      21    H12     21.123506   19.623787   19.054974 H          1 MOL1         0.0754
      22    H13     20.056071   18.679540   17.996540 H          1 MOL1         0.0754
@<TRIPOS>BOND
    1     1     2    1
    2     1     3    2
    3     1     4    1
    4     4     5    1
    5     4     6    1
    6     4     7    1
    7     7     8    1
    8     7     9    1
    9     7    10    1
   10    10    11    1
   11    10    12    1
   12    10    13    1
   13    13    14    1
   14    13    15    1
   15    13    16    1
   16    16    17    1
   17    16    18    1
   18    16    19    1
   19    19    20    1
   20    19    21    1
   21    19    22    1
@<TRIPOS>SUBSTRUCTURE
       1 MOL1            1 RESIDUE      1      MOL     
@<SCITEGIC>MOL_PROPERTY
VM2 Rank
SciTegic.value.IntegerValue
12

@<SCITEGIC>MOL_PROPERTY
Conf_Id
SciTegic.value.IntegerValue
279

@<SCITEGIC>MOL_PROPERTY
Probability
SciTegic.value.DoubleValue
1.62

@<SCITEGIC>MOL_PROPERTY
Sum Probability
SciTegic.value.DoubleValue
88.92

@<SCITEGIC>MOL_PROPERTY
Delta G
SciTegic.value.DoubleValue
1.809

@<SCITEGIC>MOL_PROPERTY
G
SciTegic.value.DoubleValue
-15.189

@<SCITEGIC>MOL_PROPERTY
E
SciTegic.value.DoubleValue
-34.923

@<SCITEGIC>MOL_PROPERTY
-TS
SciTegic.value.DoubleValue
19.735

@<SCITEGIC>MOL_PROPERTY
U+W
SciTegic.value.DoubleValue
-52.808

@<SCITEGIC>MOL_PROPERTY
U
SciTegic.value.DoubleValue
7.689

@<SCITEGIC>MOL_PROPERTY
W
SciTegic.value.DoubleValue
-60.498

@<SCITEGIC>MOL_PROPERTY
W(PB)
SciTegic.value.DoubleValue
-62.768

@<SCITEGIC>MOL_PROPERTY
W(SA)
SciTegic.value.DoubleValue
2.270

@<SCITEGIC>MOL_PROPERTY
Valence
SciTegic.value.DoubleValue
8.197

@<SCITEGIC>MOL_PROPERTY
Coulomb
SciTegic.value.DoubleValue
-1.561

@<SCITEGIC>MOL_PROPERTY
VdW
SciTegic.value.DoubleValue
1.053

@<SCITEGIC>MOL_PROPERTY
VdW6
SciTegic.value.DoubleValue
-7.737

@<SCITEGIC>MOL_PROPERTY
VdW12
SciTegic.value.DoubleValue
8.790

@<SCITEGIC>MOL_PROPERTY
Bond
SciTegic.value.DoubleValue
0.181

@<SCITEGIC>MOL_PROPERTY
Angle
SciTegic.value.DoubleValue
2.780

@<SCITEGIC>MOL_PROPERTY
Pdih
SciTegic.value.DoubleValue
5.235

@<SCITEGIC>MOL_PROPERTY
Idih
SciTegic.value.DoubleValue
0.001

@<SCITEGIC>MOL_PROPERTY
Tether
SciTegic.value.DoubleValue
0.000

@<TRIPOS>MOLECULE
guest-s21_vm2.mol2 : vm2 ligand conformer 13
          22          21           1
SMALL
USER_CHARGES
 
@<TRIPOS>ATOM
       1    C1      19.738633   19.032050   25.995103 C.2        1 MOL1         0.6145
       2    O1      19.623996   20.040951   26.662590 O.co2      1 MOL1        -0.6735
       3    O2      20.181346   17.986222   26.427288 O.co2      1 MOL1        -0.6735
       4    C2      19.325257   19.088089   24.528723 C.3        1 MOL1        -0.1985
       5    H1      18.495823   19.799364   24.436292 H          1 MOL1         0.0740
       6    H2      18.939196   18.100128   24.254216 H          1 MOL1         0.0740
       7    C3      20.490950   19.500952   23.592604 C.3        1 MOL1        -0.1882
       8    H3      20.915421   20.446745   23.956949 H          1 MOL1         0.0742
       9    H4      21.295569   18.755436   23.656576 H          1 MOL1         0.0742
      10    C4      20.065892   19.686632   22.116266 C.3        1 MOL1        -0.1880
      11    H5      20.916780   20.112013   21.569120 H          1 MOL1         0.0742
      12    H6      19.255902   20.426260   22.056800 H          1 MOL1         0.0742
      13    C5      19.622243   18.369473   21.433411 C.3        1 MOL1        -0.1880
      14    H7      20.431664   17.629339   21.494571 H          1 MOL1         0.0742
      15    H8      18.769431   17.944583   21.977707 H          1 MOL1         0.0742
      16    C6      19.201756   18.554802   19.956604 C.3        1 MOL1        -0.1856
      17    H9      18.399912   19.303062   19.889926 H          1 MOL1         0.0742
      18    H10     18.775216   17.610262   19.591704 H          1 MOL1         0.0742
      19    C7      20.369927   18.959829   19.031412 C.3        1 MOL1        -0.2871
      20    H11     20.039542   18.983492   17.984892 H          1 MOL1         0.0754
      21    H12     21.198317   18.243553   19.107857 H          1 MOL1         0.0754
      22    H13     20.752469   19.957376   19.280383 H          1 MOL1         0.0754
@<TRIPOS>BOND
    1     1     2    1
    2     1     3    2
    3     1     4    1
    4     4     5    1
    5     4     6    1
    6     4     7    1
    7     7     8    1
    8     7     9    1
    9     7    10    1
   10    10    11    1
   11    10    12    1
   12    10    13    1
   13    13    14    1
   14    13    15    1
   15    13    16    1
   16    16    17    1
   17    16    18    1
   18    16    19    1
   19    19    20    1
   20    19    21    1
   21    19    22    1
@<TRIPOS>SUBSTRUCTURE
       1 MOL1            1 RESIDUE      1      MOL     
@<SCITEGIC>MOL_PROPERTY
VM2 Rank
SciTegic.value.IntegerValue
13

@<SCITEGIC>MOL_PROPERTY
Conf_Id
SciTegic.value.IntegerValue
359

@<SCITEGIC>MOL_PROPERTY
Probability
SciTegic.value.DoubleValue
1.54

@<SCITEGIC>MOL_PROPERTY
Sum Probability
SciTegic.value.DoubleValue
90.47

@<SCITEGIC>MOL_PROPERTY
Delta G
SciTegic.value.DoubleValue
1.838

@<SCITEGIC>MOL_PROPERTY
G
SciTegic.value.DoubleValue
-15.160

@<SCITEGIC>MOL_PROPERTY
E
SciTegic.value.DoubleValue
-34.895

@<SCITEGIC>MOL_PROPERTY
-TS
SciTegic.value.DoubleValue
19.735

@<SCITEGIC>MOL_PROPERTY
U+W
SciTegic.value.DoubleValue
-52.780

@<SCITEGIC>MOL_PROPERTY
U
SciTegic.value.DoubleValue
7.689

@<SCITEGIC>MOL_PROPERTY
W
SciTegic.value.DoubleValue
-60.470

@<SCITEGIC>MOL_PROPERTY
W(PB)
SciTegic.value.DoubleValue
-62.778

@<SCITEGIC>MOL_PROPERTY
W(SA)
SciTegic.value.DoubleValue
2.309

@<SCITEGIC>MOL_PROPERTY
Valence
SciTegic.value.DoubleValue
8.197

@<SCITEGIC>MOL_PROPERTY
Coulomb
SciTegic.value.DoubleValue
-1.561

@<SCITEGIC>MOL_PROPERTY
VdW
SciTegic.value.DoubleValue
1.053

@<SCITEGIC>MOL_PROPERTY
VdW6
SciTegic.value.DoubleValue
-7.737

@<SCITEGIC>MOL_PROPERTY
VdW12
SciTegic.value.DoubleValue
8.790

@<SCITEGIC>MOL_PROPERTY
Bond
SciTegic.value.DoubleValue
0.181

@<SCITEGIC>MOL_PROPERTY
Angle
SciTegic.value.DoubleValue
2.780

@<SCITEGIC>MOL_PROPERTY
Pdih
SciTegic.value.DoubleValue
5.235

@<SCITEGIC>MOL_PROPERTY
Idih
SciTegic.value.DoubleValue
0.001

@<SCITEGIC>MOL_PROPERTY
Tether
SciTegic.value.DoubleValue
0.000

@<TRIPOS>MOLECULE
guest-s21_vm2.mol2 : vm2 ligand conformer 14
          22          21           1
SMALL
USER_CHARGES
 
@<TRIPOS>ATOM
       1    C1      20.168654   19.292766   25.667119 C.2        1 MOL1         0.6145
       2    O1      20.627884   20.417762   25.662876 O.co2      1 MOL1        -0.6735
       3    O2      19.743325   18.743575   26.664179 O.co2      1 MOL1        -0.6735
       4    C2      20.102452   18.536457   24.345175 C.3        1 MOL1        -0.1985
       5    H1      20.214144   17.466645   24.558062 H          1 MOL1         0.0740
       6    H2      20.966177   18.841261   23.743313 H          1 MOL1         0.0740
       7    C3      18.782967   18.793477   23.572274 C.3        1 MOL1        -0.1882
       8    H3      17.936309   18.564643   24.234129 H          1 MOL1         0.0742
       9    H4      18.699800   19.861900   23.332904 H          1 MOL1         0.0742
      10    C4      18.644347   17.944553   22.283415 C.3        1 MOL1        -0.1880
      11    H5      17.673929   18.165439   21.818365 H          1 MOL1         0.0742
      12    H6      18.612579   16.881870   22.559924 H          1 MOL1         0.0742
      13    C5      19.762786   18.150463   21.231008 C.3        1 MOL1        -0.1880
      14    H7      20.728756   17.828148   21.641204 H          1 MOL1         0.0742
      15    H8      19.559824   17.488931   20.377812 H          1 MOL1         0.0742
      16    C6      19.871326   19.605497   20.722252 C.3        1 MOL1        -0.1856
      17    H9      20.151893   20.273236   21.547697 H          1 MOL1         0.0742
      18    H10     18.892929   19.943316   20.353878 H          1 MOL1         0.0742
      19    C7      20.916259   19.734451   19.595703 C.3        1 MOL1        -0.2871
      20    H11     21.910682   19.428604   19.946316 H          1 MOL1         0.0754
      21    H12     20.984064   20.773559   19.248321 H          1 MOL1         0.0754
      22    H13     20.647379   19.106687   18.736096 H          1 MOL1         0.0754
@<TRIPOS>BOND
    1     1     2    1
    2     1     3    2
    3     1     4    1
    4     4     5    1
    5     4     6    1
    6     4     7    1
    7     7     8    1
    8     7     9    1
    9     7    10    1
   10    10    11    1
   11    10    12    1
   12    10    13    1
   13    13    14    1
   14    13    15    1
   15    13    16    1
   16    16    17    1
   17    16    18    1
   18    16    19    1
   19    19    20    1
   20    19    21    1
   21    19    22    1
@<TRIPOS>SUBSTRUCTURE
       1 MOL1            1 RESIDUE      1      MOL     
@<SCITEGIC>MOL_PROPERTY
VM2 Rank
SciTegic.value.IntegerValue
14

@<SCITEGIC>MOL_PROPERTY
Conf_Id
SciTegic.value.IntegerValue
325

@<SCITEGIC>MOL_PROPERTY
Probability
SciTegic.value.DoubleValue
1.23

@<SCITEGIC>MOL_PROPERTY
Sum Probability
SciTegic.value.DoubleValue
91.70

@<SCITEGIC>MOL_PROPERTY
Delta G
SciTegic.value.DoubleValue
1.972

@<SCITEGIC>MOL_PROPERTY
G
SciTegic.value.DoubleValue
-15.026

@<SCITEGIC>MOL_PROPERTY
E
SciTegic.value.DoubleValue
-35.031

@<SCITEGIC>MOL_PROPERTY
-TS
SciTegic.value.DoubleValue
20.005

@<SCITEGIC>MOL_PROPERTY
U+W
SciTegic.value.DoubleValue
-52.916

@<SCITEGIC>MOL_PROPERTY
U
SciTegic.value.DoubleValue
8.061

@<SCITEGIC>MOL_PROPERTY
W
SciTegic.value.DoubleValue
-60.977

@<SCITEGIC>MOL_PROPERTY
W(PB)
SciTegic.value.DoubleValue
-63.248

@<SCITEGIC>MOL_PROPERTY
W(SA)
SciTegic.value.DoubleValue
2.270

@<SCITEGIC>MOL_PROPERTY
Valence
SciTegic.value.DoubleValue
8.063

@<SCITEGIC>MOL_PROPERTY
Coulomb
SciTegic.value.DoubleValue
-0.784

@<SCITEGIC>MOL_PROPERTY
VdW
SciTegic.value.DoubleValue
0.783

@<SCITEGIC>MOL_PROPERTY
VdW6
SciTegic.value.DoubleValue
-8.229

@<SCITEGIC>MOL_PROPERTY
VdW12
SciTegic.value.DoubleValue
9.011

@<SCITEGIC>MOL_PROPERTY
Bond
SciTegic.value.DoubleValue
0.183

@<SCITEGIC>MOL_PROPERTY
Angle
SciTegic.value.DoubleValue
2.910

@<SCITEGIC>MOL_PROPERTY
Pdih
SciTegic.value.DoubleValue
4.970

@<SCITEGIC>MOL_PROPERTY
Idih
SciTegic.value.DoubleValue
0.001

@<SCITEGIC>MOL_PROPERTY
Tether
SciTegic.value.DoubleValue
0.000

@<TRIPOS>MOLECULE
guest-s21_vm2.mol2 : vm2 ligand conformer 15
          22          21           1
SMALL
USER_CHARGES
 
@<TRIPOS>ATOM
       1    C1      19.894508   18.887824   25.853887 C.2        1 MOL1         0.6145
       2    O1      19.021516   19.411826   26.517095 O.co2      1 MOL1        -0.6735
       3    O2      20.364272   17.795166   26.102690 O.co2      1 MOL1        -0.6735
       4    C2      20.416884   19.635151   24.632023 C.3        1 MOL1        -0.1985
       5    H1      21.472261   19.370135   24.495689 H          1 MOL1         0.0740
       6    H2      20.377345   20.709657   24.847483 H          1 MOL1         0.0740
       7    C3      19.616564   19.317554   23.344868 C.3        1 MOL1        -0.1882
       8    H3      19.655014   18.235646   23.161033 H          1 MOL1         0.0742
       9    H4      18.560842   19.579820   23.499228 H          1 MOL1         0.0742
      10    C4      20.170940   20.082824   22.121115 C.3        1 MOL1        -0.1880
      11    H5      21.211989   19.786069   21.937990 H          1 MOL1         0.0742
      12    H6      20.196870   21.156194   22.353354 H          1 MOL1         0.0742
      13    C5      19.330141   19.883302   20.835054 C.3        1 MOL1        -0.1880
      14    H7      18.318451   20.275092   21.007413 H          1 MOL1         0.0742
      15    H8      19.760897   20.499206   20.033928 H          1 MOL1         0.0742
      16    C6      19.219671   18.421224   20.336236 C.3        1 MOL1        -0.1856
      17    H9      18.592261   18.406271   19.434472 H          1 MOL1         0.0742
      18    H10     18.696186   17.805485   21.079501 H          1 MOL1         0.0742
      19    C7      20.585505   17.784130   20.001032 C.3        1 MOL1        -0.2871
      20    H11     20.447412   16.786042   19.565670 H          1 MOL1         0.0754
      21    H12     21.204220   17.671817   20.900292 H          1 MOL1         0.0754
      22    H13     21.137532   18.396515   19.276295 H          1 MOL1         0.0754
@<TRIPOS>BOND
    1     1     2    1
    2     1     3    2
    3     1     4    1
    4     4     5    1
    5     4     6    1
    6     4     7    1
    7     7     8    1
    8     7     9    1
    9     7    10    1
   10    10    11    1
   11    10    12    1
   12    10    13    1
   13    13    14    1
   14    13    15    1
   15    13    16    1
   16    16    17    1
   17    16    18    1
   18    16    19    1
   19    19    20    1
   20    19    21    1
   21    19    22    1
@<TRIPOS>SUBSTRUCTURE
       1 MOL1            1 RESIDUE      1      MOL     
@<SCITEGIC>MOL_PROPERTY
VM2 Rank
SciTegic.value.IntegerValue
15

@<SCITEGIC>MOL_PROPERTY
Conf_Id
SciTegic.value.IntegerValue
110

@<SCITEGIC>MOL_PROPERTY
Probability
SciTegic.value.DoubleValue
1.17

@<SCITEGIC>MOL_PROPERTY
Sum Probability
SciTegic.value.DoubleValue
92.87

@<SCITEGIC>MOL_PROPERTY
Delta G
SciTegic.value.DoubleValue
2.000

@<SCITEGIC>MOL_PROPERTY
G
SciTegic.value.DoubleValue
-14.998

@<SCITEGIC>MOL_PROPERTY
E
SciTegic.value.DoubleValue
-34.972

@<SCITEGIC>MOL_PROPERTY
-TS
SciTegic.value.DoubleValue
19.974

@<SCITEGIC>MOL_PROPERTY
U+W
SciTegic.value.DoubleValue
-52.856

@<SCITEGIC>MOL_PROPERTY
U
SciTegic.value.DoubleValue
8.103

@<SCITEGIC>MOL_PROPERTY
W
SciTegic.value.DoubleValue
-60.960

@<SCITEGIC>MOL_PROPERTY
W(PB)
SciTegic.value.DoubleValue
-63.238

@<SCITEGIC>MOL_PROPERTY
W(SA)
SciTegic.value.DoubleValue
2.279

@<SCITEGIC>MOL_PROPERTY
Valence
SciTegic.value.DoubleValue
8.053

@<SCITEGIC>MOL_PROPERTY
Coulomb
SciTegic.value.DoubleValue
-0.790

@<SCITEGIC>MOL_PROPERTY
VdW
SciTegic.value.DoubleValue
0.841

@<SCITEGIC>MOL_PROPERTY
VdW6
SciTegic.value.DoubleValue
-8.065

@<SCITEGIC>MOL_PROPERTY
VdW12
SciTegic.value.DoubleValue
8.906

@<SCITEGIC>MOL_PROPERTY
Bond
SciTegic.value.DoubleValue
0.172

@<SCITEGIC>MOL_PROPERTY
Angle
SciTegic.value.DoubleValue
2.891

@<SCITEGIC>MOL_PROPERTY
Pdih
SciTegic.value.DoubleValue
4.989

@<SCITEGIC>MOL_PROPERTY
Idih
SciTegic.value.DoubleValue
0.000

@<SCITEGIC>MOL_PROPERTY
Tether
SciTegic.value.DoubleValue
0.000

@<TRIPOS>MOLECULE
guest-s21_vm2.mol2 : vm2 ligand conformer 16
          22          21           1
SMALL
USER_CHARGES
 
@<TRIPOS>ATOM
       1    C1      19.869012   19.359427   25.835826 C.2        1 MOL1         0.6145
       2    O1      20.217022   20.512238   25.998307 O.co2      1 MOL1        -0.6735
       3    O2      19.055120   18.796475   26.540952 O.co2      1 MOL1        -0.6735
       4    C2      20.473865   18.581643   24.672411 C.3        1 MOL1        -0.1985
       5    H1      20.549414   17.528727   24.969415 H          1 MOL1         0.0740
       6    H2      21.495105   18.947616   24.511873 H          1 MOL1         0.0740
       7    C3      19.649287   18.712007   23.368102 C.3        1 MOL1        -0.1882
       8    H3      18.627304   18.350192   23.546429 H          1 MOL1         0.0742
       9    H4      19.571810   19.774551   23.102019 H          1 MOL1         0.0742
      10    C4      20.287822   17.919631   22.204077 C.3        1 MOL1        -0.1880
      11    H5      20.428153   16.876170   22.517497 H          1 MOL1         0.0742
      12    H6      21.291635   18.311833   21.994513 H          1 MOL1         0.0742
      13    C5      19.435726   17.928725   20.910033 C.3        1 MOL1        -0.1880
      14    H7      19.933518   17.303336   20.156520 H          1 MOL1         0.0742
      15    H8      18.471347   17.444714   21.116013 H          1 MOL1         0.0742
      16    C6      19.170694   19.328038   20.301450 C.3        1 MOL1        -0.1856
      17    H9      18.581017   19.938891   20.997692 H          1 MOL1         0.0742
      18    H10     18.548985   19.206502   19.403813 H          1 MOL1         0.0742
      19    C7      20.461452   20.080816   19.912842 C.3        1 MOL1        -0.2871
      20    H11     20.218616   21.022033   19.403012 H          1 MOL1         0.0754
      21    H12     21.079107   19.477733   19.234766 H          1 MOL1         0.0754
      22    H13     21.060796   20.327447   20.798308 H          1 MOL1         0.0754
@<TRIPOS>BOND
    1     1     2    1
    2     1     3    2
    3     1     4    1
    4     4     5    1
    5     4     6    1
    6     4     7    1
    7     7     8    1
    8     7     9    1
    9     7    10    1
   10    10    11    1
   11    10    12    1
   12    10    13    1
   13    13    14    1
   14    13    15    1
   15    13    16    1
   16    16    17    1
   17    16    18    1
   18    16    19    1
   19    19    20    1
   20    19    21    1
   21    19    22    1
@<TRIPOS>SUBSTRUCTURE
       1 MOL1            1 RESIDUE      1      MOL     
@<SCITEGIC>MOL_PROPERTY
VM2 Rank
SciTegic.value.IntegerValue
16

@<SCITEGIC>MOL_PROPERTY
Conf_Id
SciTegic.value.IntegerValue
183

@<SCITEGIC>MOL_PROPERTY
Probability
SciTegic.value.DoubleValue
1.14

@<SCITEGIC>MOL_PROPERTY
Sum Probability
SciTegic.value.DoubleValue
94.02

@<SCITEGIC>MOL_PROPERTY
Delta G
SciTegic.value.DoubleValue
2.015

@<SCITEGIC>MOL_PROPERTY
G
SciTegic.value.DoubleValue
-14.983

@<SCITEGIC>MOL_PROPERTY
E
SciTegic.value.DoubleValue
-34.956

@<SCITEGIC>MOL_PROPERTY
-TS
SciTegic.value.DoubleValue
19.974

@<SCITEGIC>MOL_PROPERTY
U+W
SciTegic.value.DoubleValue
-52.841

@<SCITEGIC>MOL_PROPERTY
U
SciTegic.value.DoubleValue
8.103

@<SCITEGIC>MOL_PROPERTY
W
SciTegic.value.DoubleValue
-60.944

@<SCITEGIC>MOL_PROPERTY
W(PB)
SciTegic.value.DoubleValue
-63.213

@<SCITEGIC>MOL_PROPERTY
W(SA)
SciTegic.value.DoubleValue
2.269

@<SCITEGIC>MOL_PROPERTY
Valence
SciTegic.value.DoubleValue
8.053

@<SCITEGIC>MOL_PROPERTY
Coulomb
SciTegic.value.DoubleValue
-0.791

@<SCITEGIC>MOL_PROPERTY
VdW
SciTegic.value.DoubleValue
0.841

@<SCITEGIC>MOL_PROPERTY
VdW6
SciTegic.value.DoubleValue
-8.065

@<SCITEGIC>MOL_PROPERTY
VdW12
SciTegic.value.DoubleValue
8.906

@<SCITEGIC>MOL_PROPERTY
Bond
SciTegic.value.DoubleValue
0.172

@<SCITEGIC>MOL_PROPERTY
Angle
SciTegic.value.DoubleValue
2.891

@<SCITEGIC>MOL_PROPERTY
Pdih
SciTegic.value.DoubleValue
4.989

@<SCITEGIC>MOL_PROPERTY
Idih
SciTegic.value.DoubleValue
0.000

@<SCITEGIC>MOL_PROPERTY
Tether
SciTegic.value.DoubleValue
0.000

@<TRIPOS>MOLECULE
guest-s21_vm2.mol2 : vm2 ligand conformer 17
          22          21           1
SMALL
USER_CHARGES
 
@<TRIPOS>ATOM
       1    C1      19.597566   19.273285   25.679176 C.2        1 MOL1         0.6145
       2    O1      19.418867   20.466652   25.823595 O.co2      1 MOL1        -0.6735
       3    O2      18.810366   18.425635   26.051579 O.co2      1 MOL1        -0.6735
       4    C2      20.892042   18.815562   25.012907 C.3        1 MOL1        -0.1985
       5    H1      21.067948   17.765067   25.274357 H          1 MOL1         0.0740
       6    H2      21.711556   19.394027   25.455418 H          1 MOL1         0.0740
       7    C3      20.904661   18.994397   23.472505 C.3        1 MOL1        -0.1882
       8    H3      20.707574   20.048232   23.235393 H          1 MOL1         0.0742
       9    H4      21.910506   18.766163   23.095078 H          1 MOL1         0.0742
      10    C4      19.873952   18.084325   22.762597 C.3        1 MOL1        -0.1880
      11    H5      18.857256   18.352175   23.081799 H          1 MOL1         0.0742
      12    H6      20.034762   17.045790   23.082638 H          1 MOL1         0.0742
      13    C5      19.961367   18.141875   21.219037 C.3        1 MOL1        -0.1880
      14    H7      20.974991   17.866803   20.896907 H          1 MOL1         0.0742
      15    H8      19.286388   17.381049   20.803784 H          1 MOL1         0.0742
      16    C6      19.584167   19.520823   20.632192 C.3        1 MOL1        -0.1856
      17    H9      20.294864   20.284694   20.973909 H          1 MOL1         0.0742
      18    H10     18.591871   19.819848   20.997161 H          1 MOL1         0.0742
      19    C7      19.577013   19.496444   19.090413 C.3        1 MOL1        -0.2871
      20    H11     19.310597   20.482944   18.689290 H          1 MOL1         0.0754
      21    H12     18.847348   18.768633   18.711954 H          1 MOL1         0.0754
      22    H13     20.566099   19.226571   18.697668 H          1 MOL1         0.0754
@<TRIPOS>BOND
    1     1     2    1
    2     1     3    2
    3     1     4    1
    4     4     5    1
    5     4     6    1
    6     4     7    1
    7     7     8    1
    8     7     9    1
    9     7    10    1
   10    10    11    1
   11    10    12    1
   12    10    13    1
   13    13    14    1
   14    13    15    1
   15    13    16    1
   16    16    17    1
   17    16    18    1
   18    16    19    1
   19    19    20    1
   20    19    21    1
   21    19    22    1
@<TRIPOS>SUBSTRUCTURE
       1 MOL1            1 RESIDUE      1      MOL     
@<SCITEGIC>MOL_PROPERTY
VM2 Rank
SciTegic.value.IntegerValue
17

@<SCITEGIC>MOL_PROPERTY
Conf_Id
SciTegic.value.IntegerValue
332

@<SCITEGIC>MOL_PROPERTY
Probability
SciTegic.value.DoubleValue
0.75

@<SCITEGIC>MOL_PROPERTY
Sum Probability
SciTegic.value.DoubleValue
94.77

@<SCITEGIC>MOL_PROPERTY
Delta G
SciTegic.value.DoubleValue
2.267

@<SCITEGIC>MOL_PROPERTY
G
SciTegic.value.DoubleValue
-14.731

@<SCITEGIC>MOL_PROPERTY
E
SciTegic.value.DoubleValue
-34.712

@<SCITEGIC>MOL_PROPERTY
-TS
SciTegic.value.DoubleValue
19.980

@<SCITEGIC>MOL_PROPERTY
U+W
SciTegic.value.DoubleValue
-52.596

@<SCITEGIC>MOL_PROPERTY
U
SciTegic.value.DoubleValue
8.925

@<SCITEGIC>MOL_PROPERTY
W
SciTegic.value.DoubleValue
-61.521

@<SCITEGIC>MOL_PROPERTY
W(PB)
SciTegic.value.DoubleValue
-63.790

@<SCITEGIC>MOL_PROPERTY
W(SA)
SciTegic.value.DoubleValue
2.269

@<SCITEGIC>MOL_PROPERTY
Valence
SciTegic.value.DoubleValue
7.882

@<SCITEGIC>MOL_PROPERTY
Coulomb
SciTegic.value.DoubleValue
0.348

@<SCITEGIC>MOL_PROPERTY
VdW
SciTegic.value.DoubleValue
0.695

@<SCITEGIC>MOL_PROPERTY
VdW6
SciTegic.value.DoubleValue
-8.049

@<SCITEGIC>MOL_PROPERTY
VdW12
SciTegic.value.DoubleValue
8.743

@<SCITEGIC>MOL_PROPERTY
Bond
SciTegic.value.DoubleValue
0.156

@<SCITEGIC>MOL_PROPERTY
Angle
SciTegic.value.DoubleValue
2.660

@<SCITEGIC>MOL_PROPERTY
Pdih
SciTegic.value.DoubleValue
5.065

@<SCITEGIC>MOL_PROPERTY
Idih
SciTegic.value.DoubleValue
0.001

@<SCITEGIC>MOL_PROPERTY
Tether
SciTegic.value.DoubleValue
0.000

@<TRIPOS>MOLECULE
guest-s21_vm2.mol2 : vm2 ligand conformer 18
          22          21           1
SMALL
USER_CHARGES
 
@<TRIPOS>ATOM
       1    C1      19.718861   18.857657   25.684943 C.2        1 MOL1         0.6145
       2    O1      18.910104   19.564190   26.253873 O.co2      1 MOL1        -0.6735
       3    O2      19.670503   17.643391   25.688119 O.co2      1 MOL1        -0.6735
       4    C2      20.869416   19.534073   24.944761 C.3        1 MOL1        -0.1985
       5    H1      21.666582   18.797201   24.788392 H          1 MOL1         0.0740
       6    H2      21.276761   20.306437   25.607732 H          1 MOL1         0.0740
       7    C3      20.460055   20.174947   23.593167 C.3        1 MOL1        -0.1882
       8    H3      19.643172   20.890220   23.762518 H          1 MOL1         0.0742
       9    H4      21.308670   20.751171   23.200307 H          1 MOL1         0.0742
      10    C4      20.028610   19.125411   22.544213 C.3        1 MOL1        -0.1880
      11    H5      19.166195   18.558541   22.921056 H          1 MOL1         0.0742
      12    H6      20.844805   18.405953   22.398565 H          1 MOL1         0.0742
      13    C5      19.660295   19.785306   21.195383 C.3        1 MOL1        -0.1880
      14    H7      18.892401   20.551177   21.370597 H          1 MOL1         0.0742
      15    H8      20.535591   20.309543   20.788065 H          1 MOL1         0.0742
      16    C6      19.123819   18.783195   20.146931 C.3        1 MOL1        -0.1856
      17    H9      18.776743   19.344259   19.268321 H          1 MOL1         0.0742
      18    H10     18.244567   18.260973   20.548846 H          1 MOL1         0.0742
      19    C7      20.178335   17.750829   19.692610 C.3        1 MOL1        -0.2871
      20    H11     20.471340   17.088398   20.516690 H          1 MOL1         0.0754
      21    H12     21.079754   18.250300   19.314344 H          1 MOL1         0.0754
      22    H13     19.777417   17.121680   18.887415 H          1 MOL1         0.0754
@<TRIPOS>BOND
    1     1     2    1
    2     1     3    2
    3     1     4    1
    4     4     5    1
    5     4     6    1
    6     4     7    1
    7     7     8    1
    8     7     9    1
    9     7    10    1
   10    10    11    1
   11    10    12    1
   12    10    13    1
   13    13    14    1
   14    13    15    1
   15    13    16    1
   16    16    17    1
   17    16    18    1
   18    16    19    1
   19    19    20    1
   20    19    21    1
   21    19    22    1
@<TRIPOS>SUBSTRUCTURE
       1 MOL1            1 RESIDUE      1      MOL     
@<SCITEGIC>MOL_PROPERTY
VM2 Rank
SciTegic.value.IntegerValue
18

@<SCITEGIC>MOL_PROPERTY
Conf_Id
SciTegic.value.IntegerValue
319

@<SCITEGIC>MOL_PROPERTY
Probability
SciTegic.value.DoubleValue
0.64

@<SCITEGIC>MOL_PROPERTY
Sum Probability
SciTegic.value.DoubleValue
95.41

@<SCITEGIC>MOL_PROPERTY
Delta G
SciTegic.value.DoubleValue
2.358

@<SCITEGIC>MOL_PROPERTY
G
SciTegic.value.DoubleValue
-14.640

@<SCITEGIC>MOL_PROPERTY
E
SciTegic.value.DoubleValue
-34.625

@<SCITEGIC>MOL_PROPERTY
-TS
SciTegic.value.DoubleValue
19.985

@<SCITEGIC>MOL_PROPERTY
U+W
SciTegic.value.DoubleValue
-52.510

@<SCITEGIC>MOL_PROPERTY
U
SciTegic.value.DoubleValue
9.110

@<SCITEGIC>MOL_PROPERTY
W
SciTegic.value.DoubleValue
-61.620

@<SCITEGIC>MOL_PROPERTY
W(PB)
SciTegic.value.DoubleValue
-63.904

@<SCITEGIC>MOL_PROPERTY
W(SA)
SciTegic.value.DoubleValue
2.285

@<SCITEGIC>MOL_PROPERTY
Valence
SciTegic.value.DoubleValue
7.861

@<SCITEGIC>MOL_PROPERTY
Coulomb
SciTegic.value.DoubleValue
0.529

@<SCITEGIC>MOL_PROPERTY
VdW
SciTegic.value.DoubleValue
0.720

@<SCITEGIC>MOL_PROPERTY
VdW6
SciTegic.value.DoubleValue
-7.989

@<SCITEGIC>MOL_PROPERTY
VdW12
SciTegic.value.DoubleValue
8.709

@<SCITEGIC>MOL_PROPERTY
Bond
SciTegic.value.DoubleValue
0.152

@<SCITEGIC>MOL_PROPERTY
Angle
SciTegic.value.DoubleValue
2.653

@<SCITEGIC>MOL_PROPERTY
Pdih
SciTegic.value.DoubleValue
5.056

@<SCITEGIC>MOL_PROPERTY
Idih
SciTegic.value.DoubleValue
0.001

@<SCITEGIC>MOL_PROPERTY
Tether
SciTegic.value.DoubleValue
0.000

@<TRIPOS>MOLECULE
guest-s21_vm2.mol2 : vm2 ligand conformer 19
          22          21           1
SMALL
USER_CHARGES
 
@<TRIPOS>ATOM
       1    C1      19.751620   19.150359   25.837377 C.2        1 MOL1         0.6145
       2    O1      19.799053   20.302678   26.220566 O.co2      1 MOL1        -0.6735
       3    O2      18.900621   18.358569   26.191969 O.co2      1 MOL1        -0.6735
       4    C2      20.832232   18.667866   24.873643 C.3        1 MOL1        -0.1985
       5    H1      20.858397   17.571653   24.896455 H          1 MOL1         0.0740
       6    H2      21.796302   19.016363   25.262421 H          1 MOL1         0.0740
       7    C3      20.650326   19.168743   23.417055 C.3        1 MOL1        -0.1882
       8    H3      20.585355   20.265636   23.414995 H          1 MOL1         0.0742
       9    H4      21.547492   18.902952   22.843807 H          1 MOL1         0.0742
      10    C4      19.398199   18.567577   22.734424 C.3        1 MOL1        -0.1880
      11    H5      18.513052   18.788181   23.346665 H          1 MOL1         0.0742
      12    H6      19.484595   17.472993   22.699429 H          1 MOL1         0.0742
      13    C5      19.150989   19.114179   21.308264 C.3        1 MOL1        -0.1880
      14    H7      18.181081   18.737800   20.955388 H          1 MOL1         0.0742
      15    H8      19.064728   20.208811   21.343732 H          1 MOL1         0.0742
      16    C6      20.244178   18.709841   20.293438 C.3        1 MOL1        -0.1856
      17    H9      20.368527   17.618186   20.297877 H          1 MOL1         0.0742
      18    H10     21.209796   19.144008   20.583777 H          1 MOL1         0.0742
      19    C7      19.892782   19.179187   18.867264 C.3        1 MOL1        -0.2871
      20    H11     20.679549   18.887754   18.159360 H          1 MOL1         0.0754
      21    H12     19.789060   20.271473   18.828060 H          1 MOL1         0.0754
      22    H13     18.949136   18.732583   18.527506 H          1 MOL1         0.0754
@<TRIPOS>BOND
    1     1     2    1
    2     1     3    2
    3     1     4    1
    4     4     5    1
    5     4     6    1
    6     4     7    1
    7     7     8    1
    8     7     9    1
    9     7    10    1
   10    10    11    1
   11    10    12    1
   12    10    13    1
   13    13    14    1
   14    13    15    1
   15    13    16    1
   16    16    17    1
   17    16    18    1
   18    16    19    1
   19    19    20    1
   20    19    21    1
   21    19    22    1
@<TRIPOS>SUBSTRUCTURE
       1 MOL1            1 RESIDUE      1      MOL     
@<SCITEGIC>MOL_PROPERTY
VM2 Rank
SciTegic.value.IntegerValue
19

@<SCITEGIC>MOL_PROPERTY
Conf_Id
SciTegic.value.IntegerValue
375

@<SCITEGIC>MOL_PROPERTY
Probability
SciTegic.value.DoubleValue
0.62

@<SCITEGIC>MOL_PROPERTY
Sum Probability
SciTegic.value.DoubleValue
96.03

@<SCITEGIC>MOL_PROPERTY
Delta G
SciTegic.value.DoubleValue
2.378

@<SCITEGIC>MOL_PROPERTY
G
SciTegic.value.DoubleValue
-14.620

@<SCITEGIC>MOL_PROPERTY
E
SciTegic.value.DoubleValue
-34.607

@<SCITEGIC>MOL_PROPERTY
-TS
SciTegic.value.DoubleValue
19.988

@<SCITEGIC>MOL_PROPERTY
U+W
SciTegic.value.DoubleValue
-52.492

@<SCITEGIC>MOL_PROPERTY
U
SciTegic.value.DoubleValue
8.586

@<SCITEGIC>MOL_PROPERTY
W
SciTegic.value.DoubleValue
-61.078

@<SCITEGIC>MOL_PROPERTY
W(PB)
SciTegic.value.DoubleValue
-63.354

@<SCITEGIC>MOL_PROPERTY
W(SA)
SciTegic.value.DoubleValue
2.276

@<SCITEGIC>MOL_PROPERTY
Valence
SciTegic.value.DoubleValue
7.933

@<SCITEGIC>MOL_PROPERTY
Coulomb
SciTegic.value.DoubleValue
-0.125

@<SCITEGIC>MOL_PROPERTY
VdW
SciTegic.value.DoubleValue
0.778

@<SCITEGIC>MOL_PROPERTY
VdW6
SciTegic.value.DoubleValue
-7.981

@<SCITEGIC>MOL_PROPERTY
VdW12
SciTegic.value.DoubleValue
8.759

@<SCITEGIC>MOL_PROPERTY
Bond
SciTegic.value.DoubleValue
0.160

@<SCITEGIC>MOL_PROPERTY
Angle
SciTegic.value.DoubleValue
2.698

@<SCITEGIC>MOL_PROPERTY
Pdih
SciTegic.value.DoubleValue
5.074

@<SCITEGIC>MOL_PROPERTY
Idih
SciTegic.value.DoubleValue
0.000

@<SCITEGIC>MOL_PROPERTY
Tether
SciTegic.value.DoubleValue
0.000

@<TRIPOS>MOLECULE
guest-s21_vm2.mol2 : vm2 ligand conformer 20
          22          21           1
SMALL
USER_CHARGES
 
@<TRIPOS>ATOM
       1    C1      19.616250   18.931904   25.692268 C.2        1 MOL1         0.6145
       2    O1      18.739968   19.714820   26.002185 O.co2      1 MOL1        -0.6735
       3    O2      19.567832   17.740703   25.928082 O.co2      1 MOL1        -0.6735
       4    C2      20.855992   19.475545   24.987575 C.3        1 MOL1        -0.1985
       5    H1      21.731740   19.025228   25.469570 H          1 MOL1         0.0740
       6    H2      20.915415   20.555833   25.167255 H          1 MOL1         0.0740
       7    C3      20.894438   19.181979   23.465301 C.3        1 MOL1        -0.1882
       8    H3      21.871016   19.488871   23.067333 H          1 MOL1         0.0742
       9    H4      20.814261   18.097934   23.310219 H          1 MOL1         0.0742
      10    C4      19.773732   19.917506   22.692269 C.3        1 MOL1        -0.1880
      11    H5      19.819198   20.988774   22.931346 H          1 MOL1         0.0742
      12    H6      18.790924   19.565744   23.035277 H          1 MOL1         0.0742
      13    C5      19.873298   19.752049   21.157266 C.3        1 MOL1        -0.1880
      14    H7      19.121229   20.400908   20.687944 H          1 MOL1         0.0742
      15    H8      20.852278   20.110416   20.810804 H          1 MOL1         0.0742
      16    C6      19.650906   18.299452   20.679072 C.3        1 MOL1        -0.1856
      17    H9      18.695545   17.922943   21.069961 H          1 MOL1         0.0742
      18    H10     20.439101   17.645843   21.075179 H          1 MOL1         0.0742
      19    C7      19.647584   18.205042   19.139980 C.3        1 MOL1        -0.2871
      20    H11     19.491843   17.167655   18.816512 H          1 MOL1         0.0754
      21    H12     20.603040   18.550202   18.723639 H          1 MOL1         0.0754
      22    H13     18.844603   18.818026   18.710071 H          1 MOL1         0.0754
@<TRIPOS>BOND
    1     1     2    1
    2     1     3    2
    3     1     4    1
    4     4     5    1
    5     4     6    1
    6     4     7    1
    7     7     8    1
    8     7     9    1
    9     7    10    1
   10    10    11    1
   11    10    12    1
   12    10    13    1
   13    13    14    1
   14    13    15    1
   15    13    16    1
   16    16    17    1
   17    16    18    1
   18    16    19    1
   19    19    20    1
   20    19    21    1
   21    19    22    1
@<TRIPOS>SUBSTRUCTURE
       1 MOL1            1 RESIDUE      1      MOL     
@<SCITEGIC>MOL_PROPERTY
VM2 Rank
SciTegic.value.IntegerValue
20

@<SCITEGIC>MOL_PROPERTY
Conf_Id
SciTegic.value.IntegerValue
116

@<SCITEGIC>MOL_PROPERTY
Probability
SciTegic.value.DoubleValue
0.61

@<SCITEGIC>MOL_PROPERTY
Sum Probability
SciTegic.value.DoubleValue
96.65

@<SCITEGIC>MOL_PROPERTY
Delta G
SciTegic.value.DoubleValue
2.388

@<SCITEGIC>MOL_PROPERTY
G
SciTegic.value.DoubleValue
-14.610

@<SCITEGIC>MOL_PROPERTY
E
SciTegic.value.DoubleValue
-34.590

@<SCITEGIC>MOL_PROPERTY
-TS
SciTegic.value.DoubleValue
19.980

@<SCITEGIC>MOL_PROPERTY
U+W
SciTegic.value.DoubleValue
-52.475

@<SCITEGIC>MOL_PROPERTY
U
SciTegic.value.DoubleValue
8.925

@<SCITEGIC>MOL_PROPERTY
W
SciTegic.value.DoubleValue
-61.400

@<SCITEGIC>MOL_PROPERTY
W(PB)
SciTegic.value.DoubleValue
-63.682

@<SCITEGIC>MOL_PROPERTY
W(SA)
SciTegic.value.DoubleValue
2.282

@<SCITEGIC>MOL_PROPERTY
Valence
SciTegic.value.DoubleValue
7.881

@<SCITEGIC>MOL_PROPERTY
Coulomb
SciTegic.value.DoubleValue
0.348

@<SCITEGIC>MOL_PROPERTY
VdW
SciTegic.value.DoubleValue
0.695

@<SCITEGIC>MOL_PROPERTY
VdW6
SciTegic.value.DoubleValue
-8.049

@<SCITEGIC>MOL_PROPERTY
VdW12
SciTegic.value.DoubleValue
8.743

@<SCITEGIC>MOL_PROPERTY
Bond
SciTegic.value.DoubleValue
0.156

@<SCITEGIC>MOL_PROPERTY
Angle
SciTegic.value.DoubleValue
2.660

@<SCITEGIC>MOL_PROPERTY
Pdih
SciTegic.value.DoubleValue
5.065

@<SCITEGIC>MOL_PROPERTY
Idih
SciTegic.value.DoubleValue
0.001

@<SCITEGIC>MOL_PROPERTY
Tether
SciTegic.value.DoubleValue
0.000

@<TRIPOS>MOLECULE
guest-s21_vm2.mol2 : vm2 ligand conformer 21
          22          21           1
SMALL
USER_CHARGES
 
@<TRIPOS>ATOM
       1    C1      19.755331   19.082719   25.840000 C.2        1 MOL1         0.6145
       2    O1      18.821945   19.802268   26.136485 O.co2      1 MOL1        -0.6735
       3    O2      19.925945   17.975080   26.310051 O.co2      1 MOL1        -0.6735
       4    C2      20.781195   19.604463   24.837657 C.3        1 MOL1        -0.1985
       5    H1      21.775770   19.393499   25.247956 H          1 MOL1         0.0740
       6    H2      20.688093   20.695547   24.776362 H          1 MOL1         0.0740
       7    C3      20.660845   18.976766   23.424459 C.3        1 MOL1        -0.1882
       8    H3      21.526116   19.293924   22.828742 H          1 MOL1         0.0742
       9    H4      20.715611   17.882395   23.506624 H          1 MOL1         0.0742
      10    C4      19.353545   19.384101   22.703173 C.3        1 MOL1        -0.1880
      11    H5      19.320267   20.475708   22.584483 H          1 MOL1         0.0742
      12    H6      18.495154   19.115648   23.334116 H          1 MOL1         0.0742
      13    C5      19.173377   18.706699   21.323867 C.3        1 MOL1        -0.1880
      14    H7      19.207097   17.615098   21.442978 H          1 MOL1         0.0742
      15    H8      18.169602   18.946869   20.947489 H          1 MOL1         0.0742
      16    C6      20.219969   19.149589   20.276527 C.3        1 MOL1        -0.1856
      17    H9      21.226069   18.847000   20.594985 H          1 MOL1         0.0742
      18    H10     20.224196   20.245439   20.197225 H          1 MOL1         0.0742
      19    C7      19.927849   18.537315   18.891780 C.3        1 MOL1        -0.2871
      20    H11     20.680911   18.858244   18.160366 H          1 MOL1         0.0754
      21    H12     18.942417   18.850842   18.523025 H          1 MOL1         0.0754
      22    H13     19.944377   17.440446   18.936362 H          1 MOL1         0.0754
@<TRIPOS>BOND
    1     1     2    1
    2     1     3    2
    3     1     4    1
    4     4     5    1
    5     4     6    1
    6     4     7    1
    7     7     8    1
    8     7     9    1
    9     7    10    1
   10    10    11    1
   11    10    12    1
   12    10    13    1
   13    13    14    1
   14    13    15    1
   15    13    16    1
   16    16    17    1
   17    16    18    1
   18    16    19    1
   19    19    20    1
   20    19    21    1
   21    19    22    1
@<TRIPOS>SUBSTRUCTURE
       1 MOL1            1 RESIDUE      1      MOL     
@<SCITEGIC>MOL_PROPERTY
VM2 Rank
SciTegic.value.IntegerValue
21

@<SCITEGIC>MOL_PROPERTY
Conf_Id
SciTegic.value.IntegerValue
370

@<SCITEGIC>MOL_PROPERTY
Probability
SciTegic.value.DoubleValue
0.60

@<SCITEGIC>MOL_PROPERTY
Sum Probability
SciTegic.value.DoubleValue
97.25

@<SCITEGIC>MOL_PROPERTY
Delta G
SciTegic.value.DoubleValue
2.398

@<SCITEGIC>MOL_PROPERTY
G
SciTegic.value.DoubleValue
-14.600

@<SCITEGIC>MOL_PROPERTY
E
SciTegic.value.DoubleValue
-34.588

@<SCITEGIC>MOL_PROPERTY
-TS
SciTegic.value.DoubleValue
19.988

@<SCITEGIC>MOL_PROPERTY
U+W
SciTegic.value.DoubleValue
-52.472

@<SCITEGIC>MOL_PROPERTY
U
SciTegic.value.DoubleValue
8.586

@<SCITEGIC>MOL_PROPERTY
W
SciTegic.value.DoubleValue
-61.058

@<SCITEGIC>MOL_PROPERTY
W(PB)
SciTegic.value.DoubleValue
-63.354

@<SCITEGIC>MOL_PROPERTY
W(SA)
SciTegic.value.DoubleValue
2.296

@<SCITEGIC>MOL_PROPERTY
Valence
SciTegic.value.DoubleValue
7.933

@<SCITEGIC>MOL_PROPERTY
Coulomb
SciTegic.value.DoubleValue
-0.125

@<SCITEGIC>MOL_PROPERTY
VdW
SciTegic.value.DoubleValue
0.778

@<SCITEGIC>MOL_PROPERTY
VdW6
SciTegic.value.DoubleValue
-7.981

@<SCITEGIC>MOL_PROPERTY
VdW12
SciTegic.value.DoubleValue
8.759

@<SCITEGIC>MOL_PROPERTY
Bond
SciTegic.value.DoubleValue
0.160

@<SCITEGIC>MOL_PROPERTY
Angle
SciTegic.value.DoubleValue
2.698

@<SCITEGIC>MOL_PROPERTY
Pdih
SciTegic.value.DoubleValue
5.074

@<SCITEGIC>MOL_PROPERTY
Idih
SciTegic.value.DoubleValue
0.000

@<SCITEGIC>MOL_PROPERTY
Tether
SciTegic.value.DoubleValue
0.000

@<TRIPOS>MOLECULE
guest-s21_vm2.mol2 : vm2 ligand conformer 22
          22          21           1
SMALL
USER_CHARGES
 
@<TRIPOS>ATOM
       1    C1      19.975250   19.420286   25.448894 C.2        1 MOL1         0.6145
       2    O1      20.406159   20.498750   25.091233 O.co2      1 MOL1        -0.6735
       3    O2      19.159874   19.284353   26.339951 O.co2      1 MOL1        -0.6735
       4    C2      20.506895   18.164740   24.763230 C.3        1 MOL1        -0.1985
       5    H1      20.826485   17.473725   25.551949 H          1 MOL1         0.0740
       6    H2      21.408311   18.427844   24.198217 H          1 MOL1         0.0740
       7    C3      19.472570   17.454984   23.847216 C.3        1 MOL1        -0.1882
       8    H3      19.917254   16.533038   23.448931 H          1 MOL1         0.0742
       9    H4      18.615249   17.143208   24.459704 H          1 MOL1         0.0742
      10    C4      18.956538   18.321038   22.671923 C.3        1 MOL1        -0.1880
      11    H5      18.467961   19.224093   23.063134 H          1 MOL1         0.0742
      12    H6      18.180000   17.755845   22.138686 H          1 MOL1         0.0742
      13    C5      20.064054   18.723240   21.671145 C.3        1 MOL1        -0.1880
      14    H7      20.801539   19.365456   22.170683 H          1 MOL1         0.0742
      15    H8      20.596261   17.824917   21.329888 H          1 MOL1         0.0742
      16    C6      19.486286   19.474030   20.453000 C.3        1 MOL1        -0.1856
      17    H9      18.954070   20.373643   20.792080 H          1 MOL1         0.0742
      18    H10     18.748868   18.839944   19.941619 H          1 MOL1         0.0742
      19    C7      20.592374   19.877579   19.457407 C.3        1 MOL1        -0.2871
      20    H11     21.327472   20.539039   19.934412 H          1 MOL1         0.0754
      21    H12     20.164187   20.410248   18.598360 H          1 MOL1         0.0754
      22    H13     21.121585   18.993332   19.078726 H          1 MOL1         0.0754
@<TRIPOS>BOND
    1     1     2    1
    2     1     3    2
    3     1     4    1
    4     4     5    1
    5     4     6    1
    6     4     7    1
    7     7     8    1
    8     7     9    1
    9     7    10    1
   10    10    11    1
   11    10    12    1
   12    10    13    1
   13    13    14    1
   14    13    15    1
   15    13    16    1
   16    16    17    1
   17    16    18    1
   18    16    19    1
   19    19    20    1
   20    19    21    1
   21    19    22    1
@<TRIPOS>SUBSTRUCTURE
       1 MOL1            1 RESIDUE      1      MOL     
@<SCITEGIC>MOL_PROPERTY
VM2 Rank
SciTegic.value.IntegerValue
22

@<SCITEGIC>MOL_PROPERTY
Conf_Id
SciTegic.value.IntegerValue
93

@<SCITEGIC>MOL_PROPERTY
Probability
SciTegic.value.DoubleValue
0.42

@<SCITEGIC>MOL_PROPERTY
Sum Probability
SciTegic.value.DoubleValue
97.67

@<SCITEGIC>MOL_PROPERTY
Delta G
SciTegic.value.DoubleValue
2.613

@<SCITEGIC>MOL_PROPERTY
G
SciTegic.value.DoubleValue
-14.385

@<SCITEGIC>MOL_PROPERTY
E
SciTegic.value.DoubleValue
-34.413

@<SCITEGIC>MOL_PROPERTY
-TS
SciTegic.value.DoubleValue
20.027

@<SCITEGIC>MOL_PROPERTY
U+W
SciTegic.value.DoubleValue
-52.298

@<SCITEGIC>MOL_PROPERTY
U
SciTegic.value.DoubleValue
9.623

@<SCITEGIC>MOL_PROPERTY
W
SciTegic.value.DoubleValue
-61.921

@<SCITEGIC>MOL_PROPERTY
W(PB)
SciTegic.value.DoubleValue
-64.196

@<SCITEGIC>MOL_PROPERTY
W(SA)
SciTegic.value.DoubleValue
2.275

@<SCITEGIC>MOL_PROPERTY
Valence
SciTegic.value.DoubleValue
7.870

@<SCITEGIC>MOL_PROPERTY
Coulomb
SciTegic.value.DoubleValue
1.264

@<SCITEGIC>MOL_PROPERTY
VdW
SciTegic.value.DoubleValue
0.489

@<SCITEGIC>MOL_PROPERTY
VdW6
SciTegic.value.DoubleValue
-8.389

@<SCITEGIC>MOL_PROPERTY
VdW12
SciTegic.value.DoubleValue
8.878

@<SCITEGIC>MOL_PROPERTY
Bond
SciTegic.value.DoubleValue
0.170

@<SCITEGIC>MOL_PROPERTY
Angle
SciTegic.value.DoubleValue
2.768

@<SCITEGIC>MOL_PROPERTY
Pdih
SciTegic.value.DoubleValue
4.931

@<SCITEGIC>MOL_PROPERTY
Idih
SciTegic.value.DoubleValue
0.001

@<SCITEGIC>MOL_PROPERTY
Tether
SciTegic.value.DoubleValue
0.000

@<TRIPOS>MOLECULE
guest-s21_vm2.mol2 : vm2 ligand conformer 23
          22          21           1
SMALL
USER_CHARGES
 
@<TRIPOS>ATOM
       1    C1      20.008269   18.809394   25.472233 C.2        1 MOL1         0.6145
       2    O1      19.179308   18.924386   26.353651 O.co2      1 MOL1        -0.6735
       3    O2      20.554251   17.759446   25.196183 O.co2      1 MOL1        -0.6735
       4    C2      20.404537   20.058862   24.690582 C.3        1 MOL1        -0.1985
       5    H1      21.331365   19.851955   24.143595 H          1 MOL1         0.0740
       6    H2      20.644638   20.838414   25.422951 H          1 MOL1         0.0740
       7    C3      19.303642   20.581210   23.727335 C.3        1 MOL1        -0.1882
       8    H3      18.415242   20.844803   24.317766 H          1 MOL1         0.0742
       9    H4      19.648210   21.512523   23.257983 H          1 MOL1         0.0742
      10    C4      18.888611   19.577482   22.623736 C.3        1 MOL1        -0.1880
      11    H5      18.058033   20.013518   22.052065 H          1 MOL1         0.0742
      12    H6      18.498334   18.659662   23.084769 H          1 MOL1         0.0742
      13    C5      20.037111   19.221433   21.652093 C.3        1 MOL1        -0.1880
      14    H7      20.471088   20.143063   21.241059 H          1 MOL1         0.0742
      15    H8      20.837267   18.702259   22.196218 H          1 MOL1         0.0742
      16    C6      19.548503   18.322056   20.497209 C.3        1 MOL1        -0.1856
      17    H9      18.749443   18.832334   19.941800 H          1 MOL1         0.0742
      18    H10     19.114533   17.399046   20.906176 H          1 MOL1         0.0742
      19    C7      20.695767   17.964731   19.530979 C.3        1 MOL1        -0.2871
      20    H11     20.330928   17.325064   18.716877 H          1 MOL1         0.0754
      21    H12     21.495607   17.424450   20.054222 H          1 MOL1         0.0754
      22    H13     21.128570   18.869156   19.083706 H          1 MOL1         0.0754
@<TRIPOS>BOND
    1     1     2    1
    2     1     3    2
    3     1     4    1
    4     4     5    1
    5     4     6    1
    6     4     7    1
    7     7     8    1
    8     7     9    1
    9     7    10    1
   10    10    11    1
   11    10    12    1
   12    10    13    1
   13    13    14    1
   14    13    15    1
   15    13    16    1
   16    16    17    1
   17    16    18    1
   18    16    19    1
   19    19    20    1
   20    19    21    1
   21    19    22    1
@<TRIPOS>SUBSTRUCTURE
       1 MOL1            1 RESIDUE      1      MOL     
@<SCITEGIC>MOL_PROPERTY
VM2 Rank
SciTegic.value.IntegerValue
23

@<SCITEGIC>MOL_PROPERTY
Conf_Id
SciTegic.value.IntegerValue
140

@<SCITEGIC>MOL_PROPERTY
Probability
SciTegic.value.DoubleValue
0.39

@<SCITEGIC>MOL_PROPERTY
Sum Probability
SciTegic.value.DoubleValue
98.06

@<SCITEGIC>MOL_PROPERTY
Delta G
SciTegic.value.DoubleValue
2.655

@<SCITEGIC>MOL_PROPERTY
G
SciTegic.value.DoubleValue
-14.343

@<SCITEGIC>MOL_PROPERTY
E
SciTegic.value.DoubleValue
-34.370

@<SCITEGIC>MOL_PROPERTY
-TS
SciTegic.value.DoubleValue
20.027

@<SCITEGIC>MOL_PROPERTY
U+W
SciTegic.value.DoubleValue
-52.255

@<SCITEGIC>MOL_PROPERTY
U
SciTegic.value.DoubleValue
9.624

@<SCITEGIC>MOL_PROPERTY
W
SciTegic.value.DoubleValue
-61.879

@<SCITEGIC>MOL_PROPERTY
W(PB)
SciTegic.value.DoubleValue
-64.142

@<SCITEGIC>MOL_PROPERTY
W(SA)
SciTegic.value.DoubleValue
2.263

@<SCITEGIC>MOL_PROPERTY
Valence
SciTegic.value.DoubleValue
7.870

@<SCITEGIC>MOL_PROPERTY
Coulomb
SciTegic.value.DoubleValue
1.265

@<SCITEGIC>MOL_PROPERTY
VdW
SciTegic.value.DoubleValue
0.489

@<SCITEGIC>MOL_PROPERTY
VdW6
SciTegic.value.DoubleValue
-8.389

@<SCITEGIC>MOL_PROPERTY
VdW12
SciTegic.value.DoubleValue
8.878

@<SCITEGIC>MOL_PROPERTY
Bond
SciTegic.value.DoubleValue
0.170

@<SCITEGIC>MOL_PROPERTY
Angle
SciTegic.value.DoubleValue
2.768

@<SCITEGIC>MOL_PROPERTY
Pdih
SciTegic.value.DoubleValue
4.931

@<SCITEGIC>MOL_PROPERTY
Idih
SciTegic.value.DoubleValue
0.001

@<SCITEGIC>MOL_PROPERTY
Tether
SciTegic.value.DoubleValue
0.000

@<TRIPOS>MOLECULE
guest-s21_vm2.mol2 : vm2 ligand conformer 24
          22          21           1
SMALL
USER_CHARGES
 
@<TRIPOS>ATOM
       1    C1      19.940876   18.867156   25.681195 C.2        1 MOL1         0.6145
       2    O1      19.859591   19.708011   26.554724 O.co2      1 MOL1        -0.6735
       3    O2      20.577506   17.838413   25.795069 O.co2      1 MOL1        -0.6735
       4    C2      19.220152   19.126570   24.363168 C.3        1 MOL1        -0.1985
       5    H1      18.311402   19.701023   24.578597 H          1 MOL1         0.0740
       6    H2      18.905208   18.157913   23.958760 H          1 MOL1         0.0740
       7    C3      20.101141   19.884243   23.336405 C.3        1 MOL1        -0.1882
       8    H3      20.467425   20.810122   23.800820 H          1 MOL1         0.0742
       9    H4      20.993153   19.286780   23.105802 H          1 MOL1         0.0742
      10    C4      19.352517   20.249569   22.030067 C.3        1 MOL1        -0.1880
      11    H5      20.027056   20.826351   21.383698 H          1 MOL1         0.0742
      12    H6      18.523605   20.927595   22.274468 H          1 MOL1         0.0742
      13    C5      18.787131   19.044043   21.233689 C.3        1 MOL1        -0.1880
      14    H7      17.992477   18.562529   21.818429 H          1 MOL1         0.0742
      15    H8      18.298676   19.422805   20.325671 H          1 MOL1         0.0742
      16    C6      19.830666   17.973999   20.828754 C.3        1 MOL1        -0.1856
      17    H9      19.313136   17.163306   20.297861 H          1 MOL1         0.0742
      18    H10     20.271427   17.517362   21.724976 H          1 MOL1         0.0742
      19    C7      20.950420   18.526998   19.920928 C.3        1 MOL1        -0.2871
      20    H11     20.530691   19.003252   19.025403 H          1 MOL1         0.0754
      21    H12     21.615223   17.717119   19.594001 H          1 MOL1         0.0754
      22    H13     21.563109   19.267587   20.450173 H          1 MOL1         0.0754
@<TRIPOS>BOND
    1     1     2    1
    2     1     3    2
    3     1     4    1
    4     4     5    1
    5     4     6    1
    6     4     7    1
    7     7     8    1
    8     7     9    1
    9     7    10    1
   10    10    11    1
   11    10    12    1
   12    10    13    1
   13    13    14    1
   14    13    15    1
   15    13    16    1
   16    16    17    1
   17    16    18    1
   18    16    19    1
   19    19    20    1
   20    19    21    1
   21    19    22    1
@<TRIPOS>SUBSTRUCTURE
       1 MOL1            1 RESIDUE      1      MOL     
@<SCITEGIC>MOL_PROPERTY
VM2 Rank
SciTegic.value.IntegerValue
24

@<SCITEGIC>MOL_PROPERTY
Conf_Id
SciTegic.value.IntegerValue
94

@<SCITEGIC>MOL_PROPERTY
Probability
SciTegic.value.DoubleValue
0.26

@<SCITEGIC>MOL_PROPERTY
Sum Probability
SciTegic.value.DoubleValue
98.33

@<SCITEGIC>MOL_PROPERTY
Delta G
SciTegic.value.DoubleValue
2.889

@<SCITEGIC>MOL_PROPERTY
G
SciTegic.value.DoubleValue
-14.109

@<SCITEGIC>MOL_PROPERTY
E
SciTegic.value.DoubleValue
-34.425

@<SCITEGIC>MOL_PROPERTY
-TS
SciTegic.value.DoubleValue
20.316

@<SCITEGIC>MOL_PROPERTY
U+W
SciTegic.value.DoubleValue
-52.310

@<SCITEGIC>MOL_PROPERTY
U
SciTegic.value.DoubleValue
8.874

@<SCITEGIC>MOL_PROPERTY
W
SciTegic.value.DoubleValue
-61.184

@<SCITEGIC>MOL_PROPERTY
W(PB)
SciTegic.value.DoubleValue
-63.414

@<SCITEGIC>MOL_PROPERTY
W(SA)
SciTegic.value.DoubleValue
2.230

@<SCITEGIC>MOL_PROPERTY
Valence
SciTegic.value.DoubleValue
8.479

@<SCITEGIC>MOL_PROPERTY
Coulomb
SciTegic.value.DoubleValue
-0.357

@<SCITEGIC>MOL_PROPERTY
VdW
SciTegic.value.DoubleValue
0.753

@<SCITEGIC>MOL_PROPERTY
VdW6
SciTegic.value.DoubleValue
-9.080

@<SCITEGIC>MOL_PROPERTY
VdW12
SciTegic.value.DoubleValue
9.833

@<SCITEGIC>MOL_PROPERTY
Bond
SciTegic.value.DoubleValue
0.221

@<SCITEGIC>MOL_PROPERTY
Angle
SciTegic.value.DoubleValue
3.208

@<SCITEGIC>MOL_PROPERTY
Pdih
SciTegic.value.DoubleValue
5.050

@<SCITEGIC>MOL_PROPERTY
Idih
SciTegic.value.DoubleValue
0.000

@<SCITEGIC>MOL_PROPERTY
Tether
SciTegic.value.DoubleValue
0.000

@<TRIPOS>MOLECULE
guest-s21_vm2.mol2 : vm2 ligand conformer 25
          22          21           1
SMALL
USER_CHARGES
 
@<TRIPOS>ATOM
       1    C1      19.913748   19.371717   25.661856 C.2        1 MOL1         0.6145
       2    O1      20.435308   20.468753   25.694451 O.co2      1 MOL1        -0.6735
       3    O2      19.920151   18.595880   26.597129 O.co2      1 MOL1        -0.6735
       4    C2      19.230367   18.936655   24.370483 C.3        1 MOL1        -0.1985
       5    H1      18.815066   19.832240   23.894578 H          1 MOL1         0.0740
       6    H2      18.387553   18.286255   24.632927 H          1 MOL1         0.0740
       7    C3      20.191666   18.201561   23.400950 C.3        1 MOL1        -0.1882
       8    H3      21.015481   18.871781   23.121739 H          1 MOL1         0.0742
       9    H4      20.653118   17.358425   23.933193 H          1 MOL1         0.0742
      10    C4      19.491846   17.659469   22.129413 C.3        1 MOL1        -0.1880
      11    H5      18.739334   16.917212   22.428287 H          1 MOL1         0.0742
      12    H6      20.226929   17.110591   21.526208 H          1 MOL1         0.0742
      13    C5      18.803853   18.733142   21.245635 C.3        1 MOL1        -0.1880
      14    H7      18.362477   18.236007   20.371228 H          1 MOL1         0.0742
      15    H8      17.959821   19.170028   21.795171 H          1 MOL1         0.0742
      16    C6      19.728430   19.874716   20.755844 C.3        1 MOL1        -0.1856
      17    H9      20.114120   20.443020   21.612743 H          1 MOL1         0.0742
      18    H10     19.129213   20.582409   20.166761 H          1 MOL1         0.0742
      19    C7      20.904631   19.377106   19.888239 C.3        1 MOL1        -0.2871
      20    H11     21.591001   18.749044   20.469955 H          1 MOL1         0.0754
      21    H12     21.480149   20.226179   19.497594 H          1 MOL1         0.0754
      22    H13     20.541954   18.791588   19.033493 H          1 MOL1         0.0754
@<TRIPOS>BOND
    1     1     2    1
    2     1     3    2
    3     1     4    1
    4     4     5    1
    5     4     6    1
    6     4     7    1
    7     7     8    1
    8     7     9    1
    9     7    10    1
   10    10    11    1
   11    10    12    1
   12    10    13    1
   13    13    14    1
   14    13    15    1
   15    13    16    1
   16    16    17    1
   17    16    18    1
   18    16    19    1
   19    19    20    1
   20    19    21    1
   21    19    22    1
@<TRIPOS>SUBSTRUCTURE
       1 MOL1            1 RESIDUE      1      MOL     
@<SCITEGIC>MOL_PROPERTY
VM2 Rank
SciTegic.value.IntegerValue
25

@<SCITEGIC>MOL_PROPERTY
Conf_Id
SciTegic.value.IntegerValue
69

@<SCITEGIC>MOL_PROPERTY
Probability
SciTegic.value.DoubleValue
0.25

@<SCITEGIC>MOL_PROPERTY
Sum Probability
SciTegic.value.DoubleValue
98.57

@<SCITEGIC>MOL_PROPERTY
Delta G
SciTegic.value.DoubleValue
2.932

@<SCITEGIC>MOL_PROPERTY
G
SciTegic.value.DoubleValue
-14.066

@<SCITEGIC>MOL_PROPERTY
E
SciTegic.value.DoubleValue
-34.382

@<SCITEGIC>MOL_PROPERTY
-TS
SciTegic.value.DoubleValue
20.316

@<SCITEGIC>MOL_PROPERTY
U+W
SciTegic.value.DoubleValue
-52.267

@<SCITEGIC>MOL_PROPERTY
U
SciTegic.value.DoubleValue
8.874

@<SCITEGIC>MOL_PROPERTY
W
SciTegic.value.DoubleValue
-61.141

@<SCITEGIC>MOL_PROPERTY
W(PB)
SciTegic.value.DoubleValue
-63.377

@<SCITEGIC>MOL_PROPERTY
W(SA)
SciTegic.value.DoubleValue
2.237

@<SCITEGIC>MOL_PROPERTY
Valence
SciTegic.value.DoubleValue
8.479

@<SCITEGIC>MOL_PROPERTY
Coulomb
SciTegic.value.DoubleValue
-0.357

@<SCITEGIC>MOL_PROPERTY
VdW
SciTegic.value.DoubleValue
0.753

@<SCITEGIC>MOL_PROPERTY
VdW6
SciTegic.value.DoubleValue
-9.080

@<SCITEGIC>MOL_PROPERTY
VdW12
SciTegic.value.DoubleValue
9.833

@<SCITEGIC>MOL_PROPERTY
Bond
SciTegic.value.DoubleValue
0.221

@<SCITEGIC>MOL_PROPERTY
Angle
SciTegic.value.DoubleValue
3.208

@<SCITEGIC>MOL_PROPERTY
Pdih
SciTegic.value.DoubleValue
5.050

@<SCITEGIC>MOL_PROPERTY
Idih
SciTegic.value.DoubleValue
0.000

@<SCITEGIC>MOL_PROPERTY
Tether
SciTegic.value.DoubleValue
0.000

@<TRIPOS>MOLECULE
guest-s21_vm2.mol2 : vm2 ligand conformer 26
          22          21           1
SMALL
USER_CHARGES
 
@<TRIPOS>ATOM
       1    C1      19.758885   19.200231   25.723272 C.2        1 MOL1         0.6145
       2    O1      20.189764   20.309258   25.970896 O.co2      1 MOL1        -0.6735
       3    O2      20.084822   18.200946   26.333345 O.co2      1 MOL1        -0.6735
       4    C2      18.736273   19.055433   24.599622 C.3        1 MOL1        -0.1985
       5    H1      18.302691   20.040967   24.390832 H          1 MOL1         0.0740
       6    H2      17.922967   18.424419   24.976887 H          1 MOL1         0.0740
       7    C3      19.309641   18.436798   23.298077 C.3        1 MOL1        -0.1882
       8    H3      19.775762   17.468954   23.528856 H          1 MOL1         0.0742
       9    H4      18.476279   18.233259   22.613550 H          1 MOL1         0.0742
      10    C4      20.337035   19.361890   22.602884 C.3        1 MOL1        -0.1880
      11    H5      21.137107   19.610023   23.313578 H          1 MOL1         0.0742
      12    H6      19.860024   20.315105   22.340161 H          1 MOL1         0.0742
      13    C5      20.986446   18.730114   21.345848 C.3        1 MOL1        -0.1880
      14    H7      21.738170   19.427004   20.950980 H          1 MOL1         0.0742
      15    H8      21.537659   17.828558   21.645969 H          1 MOL1         0.0742
      16    C6      20.004578   18.358021   20.207284 C.3        1 MOL1        -0.1856
      17    H9      19.307568   17.580368   20.546287 H          1 MOL1         0.0742
      18    H10     20.578344   17.911824   19.383427 H          1 MOL1         0.0742
      19    C7      19.212555   19.566311   19.662773 C.3        1 MOL1        -0.2871
      20    H11     18.602958   19.268840   18.799822 H          1 MOL1         0.0754
      21    H12     19.890395   20.366750   19.338999 H          1 MOL1         0.0754
      22    H13     18.535203   19.974358   20.423514 H          1 MOL1         0.0754
@<TRIPOS>BOND
    1     1     2    1
    2     1     3    2
    3     1     4    1
    4     4     5    1
    5     4     6    1
    6     4     7    1
    7     7     8    1
    8     7     9    1
    9     7    10    1
   10    10    11    1
   11    10    12    1
   12    10    13    1
   13    13    14    1
   14    13    15    1
   15    13    16    1
   16    16    17    1
   17    16    18    1
   18    16    19    1
   19    19    20    1
   20    19    21    1
   21    19    22    1
@<TRIPOS>SUBSTRUCTURE
       1 MOL1            1 RESIDUE      1      MOL     
@<SCITEGIC>MOL_PROPERTY
VM2 Rank
SciTegic.value.IntegerValue
26

@<SCITEGIC>MOL_PROPERTY
Conf_Id
SciTegic.value.IntegerValue
152

@<SCITEGIC>MOL_PROPERTY
Probability
SciTegic.value.DoubleValue
0.11

@<SCITEGIC>MOL_PROPERTY
Sum Probability
SciTegic.value.DoubleValue
98.68

@<SCITEGIC>MOL_PROPERTY
Delta G
SciTegic.value.DoubleValue
3.402

@<SCITEGIC>MOL_PROPERTY
G
SciTegic.value.DoubleValue
-13.596

@<SCITEGIC>MOL_PROPERTY
E
SciTegic.value.DoubleValue
-33.890

@<SCITEGIC>MOL_PROPERTY
-TS
SciTegic.value.DoubleValue
20.293

@<SCITEGIC>MOL_PROPERTY
U+W
SciTegic.value.DoubleValue
-51.774

@<SCITEGIC>MOL_PROPERTY
U
SciTegic.value.DoubleValue
9.546

@<SCITEGIC>MOL_PROPERTY
W
SciTegic.value.DoubleValue
-61.321

@<SCITEGIC>MOL_PROPERTY
W(PB)
SciTegic.value.DoubleValue
-63.553

@<SCITEGIC>MOL_PROPERTY
W(SA)
SciTegic.value.DoubleValue
2.233

@<SCITEGIC>MOL_PROPERTY
Valence
SciTegic.value.DoubleValue
8.350

@<SCITEGIC>MOL_PROPERTY
Coulomb
SciTegic.value.DoubleValue
0.448

@<SCITEGIC>MOL_PROPERTY
VdW
SciTegic.value.DoubleValue
0.749

@<SCITEGIC>MOL_PROPERTY
VdW6
SciTegic.value.DoubleValue
-8.872

@<SCITEGIC>MOL_PROPERTY
VdW12
SciTegic.value.DoubleValue
9.620

@<SCITEGIC>MOL_PROPERTY
Bond
SciTegic.value.DoubleValue
0.198

@<SCITEGIC>MOL_PROPERTY
Angle
SciTegic.value.DoubleValue
3.089

@<SCITEGIC>MOL_PROPERTY
Pdih
SciTegic.value.DoubleValue
5.062

@<SCITEGIC>MOL_PROPERTY
Idih
SciTegic.value.DoubleValue
0.001

@<SCITEGIC>MOL_PROPERTY
Tether
SciTegic.value.DoubleValue
0.000

@<TRIPOS>MOLECULE
guest-s21_vm2.mol2 : vm2 ligand conformer 27
          22          21           1
SMALL
USER_CHARGES
 
@<TRIPOS>ATOM
       1    C1      19.768393   19.025140   25.729966 C.2        1 MOL1         0.6145
       2    O1      19.982079   20.097371   26.260677 O.co2      1 MOL1        -0.6735
       3    O2      20.315404   17.991223   26.059681 O.co2      1 MOL1        -0.6735
       4    C2      18.740753   18.972607   24.602807 C.3        1 MOL1        -0.1985
       5    H1      17.862567   19.539122   24.934203 H          1 MOL1         0.0740
       6    H2      18.416897   17.933004   24.471627 H          1 MOL1         0.0740
       7    C3      19.249370   19.548363   23.255478 C.3        1 MOL1        -0.1882
       8    H3      18.401752   19.607872   22.560856 H          1 MOL1         0.0742
       9    H4      19.607299   20.575656   23.409773 H          1 MOL1         0.0742
      10    C4      20.373528   18.689262   22.628708 C.3        1 MOL1        -0.1880
      11    H5      20.003361   17.672827   22.441582 H          1 MOL1         0.0742
      12    H6      21.192795   18.584035   23.352932 H          1 MOL1         0.0742
      13    C5      20.956049   19.289588   21.324371 C.3        1 MOL1        -0.1880
      14    H7      21.405301   20.265749   21.552396 H          1 MOL1         0.0742
      15    H8      21.780352   18.649926   20.980829 H          1 MOL1         0.0742
      16    C6      19.944446   19.465183   20.164773 C.3        1 MOL1        -0.1856
      17    H9      20.470019   19.906492   19.306834 H          1 MOL1         0.0742
      18    H10     19.166036   20.186541   20.446211 H          1 MOL1         0.0742
      19    C7      19.289979   18.140263   19.717540 C.3        1 MOL1        -0.2871
      20    H11     18.657581   17.720733   20.510068 H          1 MOL1         0.0754
      21    H12     20.051730   17.395414   19.453087 H          1 MOL1         0.0754
      22    H13     18.655361   18.303219   18.836923 H          1 MOL1         0.0754
@<TRIPOS>BOND
    1     1     2    1
    2     1     3    2
    3     1     4    1
    4     4     5    1
    5     4     6    1
    6     4     7    1
    7     7     8    1
    8     7     9    1
    9     7    10    1
   10    10    11    1
   11    10    12    1
   12    10    13    1
   13    13    14    1
   14    13    15    1
   15    13    16    1
   16    16    17    1
   17    16    18    1
   18    16    19    1
   19    19    20    1
   20    19    21    1
   21    19    22    1
@<TRIPOS>SUBSTRUCTURE
       1 MOL1            1 RESIDUE      1      MOL     
@<SCITEGIC>MOL_PROPERTY
VM2 Rank
SciTegic.value.IntegerValue
27

@<SCITEGIC>MOL_PROPERTY
Conf_Id
SciTegic.value.IntegerValue
90

@<SCITEGIC>MOL_PROPERTY
Probability
SciTegic.value.DoubleValue
0.11

@<SCITEGIC>MOL_PROPERTY
Sum Probability
SciTegic.value.DoubleValue
98.80

@<SCITEGIC>MOL_PROPERTY
Delta G
SciTegic.value.DoubleValue
3.408

@<SCITEGIC>MOL_PROPERTY
G
SciTegic.value.DoubleValue
-13.590

@<SCITEGIC>MOL_PROPERTY
E
SciTegic.value.DoubleValue
-33.883

@<SCITEGIC>MOL_PROPERTY
-TS
SciTegic.value.DoubleValue
20.293

@<SCITEGIC>MOL_PROPERTY
U+W
SciTegic.value.DoubleValue
-51.768

@<SCITEGIC>MOL_PROPERTY
U
SciTegic.value.DoubleValue
9.546

@<SCITEGIC>MOL_PROPERTY
W
SciTegic.value.DoubleValue
-61.314

@<SCITEGIC>MOL_PROPERTY
W(PB)
SciTegic.value.DoubleValue
-63.555

@<SCITEGIC>MOL_PROPERTY
W(SA)
SciTegic.value.DoubleValue
2.241

@<SCITEGIC>MOL_PROPERTY
Valence
SciTegic.value.DoubleValue
8.349

@<SCITEGIC>MOL_PROPERTY
Coulomb
SciTegic.value.DoubleValue
0.448

@<SCITEGIC>MOL_PROPERTY
VdW
SciTegic.value.DoubleValue
0.749

@<SCITEGIC>MOL_PROPERTY
VdW6
SciTegic.value.DoubleValue
-8.872

@<SCITEGIC>MOL_PROPERTY
VdW12
SciTegic.value.DoubleValue
9.620

@<SCITEGIC>MOL_PROPERTY
Bond
SciTegic.value.DoubleValue
0.198

@<SCITEGIC>MOL_PROPERTY
Angle
SciTegic.value.DoubleValue
3.089

@<SCITEGIC>MOL_PROPERTY
Pdih
SciTegic.value.DoubleValue
5.062

@<SCITEGIC>MOL_PROPERTY
Idih
SciTegic.value.DoubleValue
0.001

@<SCITEGIC>MOL_PROPERTY
Tether
SciTegic.value.DoubleValue
0.000

@<TRIPOS>MOLECULE
guest-s21_vm2.mol2 : vm2 ligand conformer 28
          22          21           1
SMALL
USER_CHARGES
 
@<TRIPOS>ATOM
       1    C1      20.147162   19.203688   25.460445 C.2        1 MOL1         0.6145
       2    O1      20.730098   20.266567   25.546547 O.co2      1 MOL1        -0.6735
       3    O2      20.616208   18.147230   25.835752 O.co2      1 MOL1        -0.6735
       4    C2      18.738218   19.201754   24.873704 C.3        1 MOL1        -0.1985
       5    H1      18.192775   20.038161   25.326369 H          1 MOL1         0.0740
       6    H2      18.228862   18.282970   25.188639 H          1 MOL1         0.0740
       7    C3      18.699825   19.333920   23.329116 C.3        1 MOL1        -0.1882
       8    H3      17.657501   19.457874   23.006143 H          1 MOL1         0.0742
       9    H4      19.234679   20.247509   23.037180 H          1 MOL1         0.0742
      10    C4      19.313687   18.106570   22.614445 C.3        1 MOL1        -0.1880
      11    H5      18.820545   17.196328   22.981698 H          1 MOL1         0.0742
      12    H6      20.372924   18.006964   22.886176 H          1 MOL1         0.0742
      13    C5      19.168365   18.153133   21.072567 C.3        1 MOL1        -0.1880
      14    H7      19.585231   17.227911   20.652041 H          1 MOL1         0.0742
      15    H8      18.100437   18.148556   20.815340 H          1 MOL1         0.0742
      16    C6      19.842353   19.364070   20.381087 C.3        1 MOL1        -0.1856
      17    H9      19.366064   20.298768   20.705276 H          1 MOL1         0.0742
      18    H10     19.664501   19.292504   19.299303 H          1 MOL1         0.0742
      19    C7      21.364084   19.442068   20.630337 C.3        1 MOL1        -0.2871
      20    H11     21.807841   20.258856   20.046666 H          1 MOL1         0.0754
      21    H12     21.858943   18.507411   20.336266 H          1 MOL1         0.0754
      22    H13     21.585058   19.631447   21.688624 H          1 MOL1         0.0754
@<TRIPOS>BOND
    1     1     2    1
    2     1     3    2
    3     1     4    1
    4     4     5    1
    5     4     6    1
    6     4     7    1
    7     7     8    1
    8     7     9    1
    9     7    10    1
   10    10    11    1
   11    10    12    1
   12    10    13    1
   13    13    14    1
   14    13    15    1
   15    13    16    1
   16    16    17    1
   17    16    18    1
   18    16    19    1
   19    19    20    1
   20    19    21    1
   21    19    22    1
@<TRIPOS>SUBSTRUCTURE
       1 MOL1            1 RESIDUE      1      MOL     
@<SCITEGIC>MOL_PROPERTY
VM2 Rank
SciTegic.value.IntegerValue
28

@<SCITEGIC>MOL_PROPERTY
Conf_Id
SciTegic.value.IntegerValue
315

@<SCITEGIC>MOL_PROPERTY
Probability
SciTegic.value.DoubleValue
0.08

@<SCITEGIC>MOL_PROPERTY
Sum Probability
SciTegic.value.DoubleValue
98.88

@<SCITEGIC>MOL_PROPERTY
Delta G
SciTegic.value.DoubleValue
3.577

@<SCITEGIC>MOL_PROPERTY
G
SciTegic.value.DoubleValue
-13.421

@<SCITEGIC>MOL_PROPERTY
E
SciTegic.value.DoubleValue
-33.724

@<SCITEGIC>MOL_PROPERTY
-TS
SciTegic.value.DoubleValue
20.303

@<SCITEGIC>MOL_PROPERTY
U+W
SciTegic.value.DoubleValue
-51.608

@<SCITEGIC>MOL_PROPERTY
U
SciTegic.value.DoubleValue
10.394

@<SCITEGIC>MOL_PROPERTY
W
SciTegic.value.DoubleValue
-62.003

@<SCITEGIC>MOL_PROPERTY
W(PB)
SciTegic.value.DoubleValue
-64.205

@<SCITEGIC>MOL_PROPERTY
W(SA)
SciTegic.value.DoubleValue
2.203

@<SCITEGIC>MOL_PROPERTY
Valence
SciTegic.value.DoubleValue
8.284

@<SCITEGIC>MOL_PROPERTY
Coulomb
SciTegic.value.DoubleValue
1.521

@<SCITEGIC>MOL_PROPERTY
VdW
SciTegic.value.DoubleValue
0.589

@<SCITEGIC>MOL_PROPERTY
VdW6
SciTegic.value.DoubleValue
-9.071

@<SCITEGIC>MOL_PROPERTY
VdW12
SciTegic.value.DoubleValue
9.660

@<SCITEGIC>MOL_PROPERTY
Bond
SciTegic.value.DoubleValue
0.194

@<SCITEGIC>MOL_PROPERTY
Angle
SciTegic.value.DoubleValue
3.030

@<SCITEGIC>MOL_PROPERTY
Pdih
SciTegic.value.DoubleValue
5.059

@<SCITEGIC>MOL_PROPERTY
Idih
SciTegic.value.DoubleValue
0.001

@<SCITEGIC>MOL_PROPERTY
Tether
SciTegic.value.DoubleValue
0.000

@<TRIPOS>MOLECULE
guest-s21_vm2.mol2 : vm2 ligand conformer 29
          22          21           1
SMALL
USER_CHARGES
 
@<TRIPOS>ATOM
       1    C1      19.688347   19.424205   25.445820 C.2        1 MOL1         0.6145
       2    O1      20.149906   20.545403   25.528377 O.co2      1 MOL1        -0.6735
       3    O2      18.552417   19.139112   25.770394 O.co2      1 MOL1        -0.6735
       4    C2      20.595354   18.309194   24.932516 C.3        1 MOL1        -0.1985
       5    H1      20.179811   17.345317   25.250406 H          1 MOL1         0.0740
       6    H2      21.564649   18.417587   25.433222 H          1 MOL1         0.0740
       7    C3      20.801937   18.323666   23.395699 C.3        1 MOL1        -0.1882
       8    H3      21.196236   19.304802   23.099327 H          1 MOL1         0.0742
       9    H4      21.565135   17.580000   23.129982 H          1 MOL1         0.0742
      10    C4      19.498505   18.017663   22.620201 C.3        1 MOL1        -0.1880
      11    H5      18.746356   18.788421   22.834554 H          1 MOL1         0.0742
      12    H6      19.076987   17.072973   22.989642 H          1 MOL1         0.0742
      13    C5      19.704838   17.895391   21.089465 C.3        1 MOL1        -0.1880
      14    H7      20.380446   17.053127   20.887468 H          1 MOL1         0.0742
      15    H8      18.744812   17.631750   20.625249 H          1 MOL1         0.0742
      16    C6      20.264773   19.161184   20.394469 C.3        1 MOL1        -0.1856
      17    H9      20.375487   18.951048   19.321810 H          1 MOL1         0.0742
      18    H10     21.274235   19.381978   20.765744 H          1 MOL1         0.0742
      19    C7      19.363923   20.403182   20.567059 C.3        1 MOL1        -0.2871
      20    H11     19.754403   21.245603   19.981751 H          1 MOL1         0.0754
      21    H12     19.319447   20.720045   21.616956 H          1 MOL1         0.0754
      22    H13     18.341359   20.197643   20.224912 H          1 MOL1         0.0754
@<TRIPOS>BOND
    1     1     2    1
    2     1     3    2
    3     1     4    1
    4     4     5    1
    5     4     6    1
    6     4     7    1
    7     7     8    1
    8     7     9    1
    9     7    10    1
   10    10    11    1
   11    10    12    1
   12    10    13    1
   13    13    14    1
   14    13    15    1
   15    13    16    1
   16    16    17    1
   17    16    18    1
   18    16    19    1
   19    19    20    1
   20    19    21    1
   21    19    22    1
@<TRIPOS>SUBSTRUCTURE
       1 MOL1            1 RESIDUE      1      MOL     
@<SCITEGIC>MOL_PROPERTY
VM2 Rank
SciTegic.value.IntegerValue
29

@<SCITEGIC>MOL_PROPERTY
Conf_Id
SciTegic.value.IntegerValue
371

@<SCITEGIC>MOL_PROPERTY
Probability
SciTegic.value.DoubleValue
0.08

@<SCITEGIC>MOL_PROPERTY
Sum Probability
SciTegic.value.DoubleValue
98.96

@<SCITEGIC>MOL_PROPERTY
Delta G
SciTegic.value.DoubleValue
3.583

@<SCITEGIC>MOL_PROPERTY
G
SciTegic.value.DoubleValue
-13.415

@<SCITEGIC>MOL_PROPERTY
E
SciTegic.value.DoubleValue
-33.718

@<SCITEGIC>MOL_PROPERTY
-TS
SciTegic.value.DoubleValue
20.303

@<SCITEGIC>MOL_PROPERTY
U+W
SciTegic.value.DoubleValue
-51.603

@<SCITEGIC>MOL_PROPERTY
U
SciTegic.value.DoubleValue
10.394

@<SCITEGIC>MOL_PROPERTY
W
SciTegic.value.DoubleValue
-61.996

@<SCITEGIC>MOL_PROPERTY
W(PB)
SciTegic.value.DoubleValue
-64.210

@<SCITEGIC>MOL_PROPERTY
W(SA)
SciTegic.value.DoubleValue
2.214

@<SCITEGIC>MOL_PROPERTY
Valence
SciTegic.value.DoubleValue
8.285

@<SCITEGIC>MOL_PROPERTY
Coulomb
SciTegic.value.DoubleValue
1.520

@<SCITEGIC>MOL_PROPERTY
VdW
SciTegic.value.DoubleValue
0.589

@<SCITEGIC>MOL_PROPERTY
VdW6
SciTegic.value.DoubleValue
-9.071

@<SCITEGIC>MOL_PROPERTY
VdW12
SciTegic.value.DoubleValue
9.660

@<SCITEGIC>MOL_PROPERTY
Bond
SciTegic.value.DoubleValue
0.194

@<SCITEGIC>MOL_PROPERTY
Angle
SciTegic.value.DoubleValue
3.031

@<SCITEGIC>MOL_PROPERTY
Pdih
SciTegic.value.DoubleValue
5.059

@<SCITEGIC>MOL_PROPERTY
Idih
SciTegic.value.DoubleValue
0.001

@<SCITEGIC>MOL_PROPERTY
Tether
SciTegic.value.DoubleValue
0.000

@<TRIPOS>MOLECULE
guest-s21_vm2.mol2 : vm2 ligand conformer 30
          22          21           1
SMALL
USER_CHARGES
 
@<TRIPOS>ATOM
       1    C1      19.907880   18.805682   25.449902 C.2        1 MOL1         0.6145
       2    O1      19.749345   19.564061   26.386448 O.co2      1 MOL1        -0.6735
       3    O2      20.853908   18.049287   25.351019 O.co2      1 MOL1        -0.6735
       4    C2      18.844750   18.783457   24.355179 C.3        1 MOL1        -0.1985
       5    H1      17.870964   18.681648   24.848087 H          1 MOL1         0.0740
       6    H2      18.982210   17.880135   23.749832 H          1 MOL1         0.0740
       7    C3      18.835153   20.048632   23.454391 C.3        1 MOL1        -0.1882
       8    H3      17.998541   19.982604   22.746917 H          1 MOL1         0.0742
       9    H4      18.629064   20.926112   24.082661 H          1 MOL1         0.0742
      10    C4      20.155894   20.293422   22.679671 C.3        1 MOL1        -0.1880
      11    H5      20.961400   20.491476   23.400093 H          1 MOL1         0.0742
      12    H6      20.051078   21.211137   22.085195 H          1 MOL1         0.0742
      13    C5      20.599605   19.139207   21.746348 C.3        1 MOL1        -0.1880
      14    H7      21.548674   19.424147   21.272385 H          1 MOL1         0.0742
      15    H8      20.815708   18.240704   22.339757 H          1 MOL1         0.0742
      16    C6      19.569075   18.804730   20.644535 C.3        1 MOL1        -0.1856
      17    H9      19.321306   19.714427   20.080511 H          1 MOL1         0.0742
      18    H10     18.636510   18.443895   21.098042 H          1 MOL1         0.0742
      19    C7      20.104389   17.730523   19.676507 C.3        1 MOL1        -0.2871
      20    H11     20.334791   16.800172   20.211992 H          1 MOL1         0.0754
      21    H12     21.019047   18.073472   19.175424 H          1 MOL1         0.0754
      22    H13     19.359895   17.501261   18.903095 H          1 MOL1         0.0754
@<TRIPOS>BOND
    1     1     2    1
    2     1     3    2
    3     1     4    1
    4     4     5    1
    5     4     6    1
    6     4     7    1
    7     7     8    1
    8     7     9    1
    9     7    10    1
   10    10    11    1
   11    10    12    1
   12    10    13    1
   13    13    14    1
   14    13    15    1
   15    13    16    1
   16    16    17    1
   17    16    18    1
   18    16    19    1
   19    19    20    1
   20    19    21    1
   21    19    22    1
@<TRIPOS>SUBSTRUCTURE
       1 MOL1            1 RESIDUE      1      MOL     
@<SCITEGIC>MOL_PROPERTY
VM2 Rank
SciTegic.value.IntegerValue
30

@<SCITEGIC>MOL_PROPERTY
Conf_Id
SciTegic.value.IntegerValue
273

@<SCITEGIC>MOL_PROPERTY
Probability
SciTegic.value.DoubleValue
0.08

@<SCITEGIC>MOL_PROPERTY
Sum Probability
SciTegic.value.DoubleValue
99.04

@<SCITEGIC>MOL_PROPERTY
Delta G
SciTegic.value.DoubleValue
3.601

@<SCITEGIC>MOL_PROPERTY
G
SciTegic.value.DoubleValue
-13.397

@<SCITEGIC>MOL_PROPERTY
E
SciTegic.value.DoubleValue
-33.803

@<SCITEGIC>MOL_PROPERTY
-TS
SciTegic.value.DoubleValue
20.406

@<SCITEGIC>MOL_PROPERTY
U+W
SciTegic.value.DoubleValue
-51.688

@<SCITEGIC>MOL_PROPERTY
U
SciTegic.value.DoubleValue
10.054

@<SCITEGIC>MOL_PROPERTY
W
SciTegic.value.DoubleValue
-61.742

@<SCITEGIC>MOL_PROPERTY
W(PB)
SciTegic.value.DoubleValue
-63.970

@<SCITEGIC>MOL_PROPERTY
W(SA)
SciTegic.value.DoubleValue
2.228

@<SCITEGIC>MOL_PROPERTY
Valence
SciTegic.value.DoubleValue
8.321

@<SCITEGIC>MOL_PROPERTY
Coulomb
SciTegic.value.DoubleValue
1.289

@<SCITEGIC>MOL_PROPERTY
VdW
SciTegic.value.DoubleValue
0.445

@<SCITEGIC>MOL_PROPERTY
VdW6
SciTegic.value.DoubleValue
-9.397

@<SCITEGIC>MOL_PROPERTY
VdW12
SciTegic.value.DoubleValue
9.842

@<SCITEGIC>MOL_PROPERTY
Bond
SciTegic.value.DoubleValue
0.210

@<SCITEGIC>MOL_PROPERTY
Angle
SciTegic.value.DoubleValue
3.152

@<SCITEGIC>MOL_PROPERTY
Pdih
SciTegic.value.DoubleValue
4.957

@<SCITEGIC>MOL_PROPERTY
Idih
SciTegic.value.DoubleValue
0.001

@<SCITEGIC>MOL_PROPERTY
Tether
SciTegic.value.DoubleValue
0.000

@<TRIPOS>MOLECULE
guest-s21_vm2.mol2 : vm2 ligand conformer 31
          22          21           1
SMALL
USER_CHARGES
 
@<TRIPOS>ATOM
       1    C1      20.020841   18.947817   25.517253 C.2        1 MOL1         0.6145
       2    O1      20.377190   19.872586   26.220904 O.co2      1 MOL1        -0.6735
       3    O2      20.645224   17.911635   25.402196 O.co2      1 MOL1        -0.6735
       4    C2      18.702107   19.085947   24.761591 C.3        1 MOL1        -0.1985
       5    H1      17.945286   19.411230   25.484873 H          1 MOL1         0.0740
       6    H2      18.390754   18.094550   24.413880 H          1 MOL1         0.0740
       7    C3      18.748822   20.093838   23.580439 C.3        1 MOL1        -0.1882
       8    H3      17.748679   20.171713   23.133247 H          1 MOL1         0.0742
       9    H4      18.985554   21.090087   23.978902 H          1 MOL1         0.0742
      10    C4      19.775630   19.744594   22.474807 C.3        1 MOL1        -0.1880
      11    H5      20.784805   19.699491   22.906610 H          1 MOL1         0.0742
      12    H6      19.785762   20.568441   21.750124 H          1 MOL1         0.0742
      13    C5      19.464635   18.416467   21.742137 C.3        1 MOL1        -0.1880
      14    H7      19.480294   17.591261   22.465825 H          1 MOL1         0.0742
      15    H8      18.448766   18.449990   21.325750 H          1 MOL1         0.0742
      16    C6      20.474290   18.083732   20.618800 C.3        1 MOL1        -0.1856
      17    H9      20.269423   17.068462   20.252150 H          1 MOL1         0.0742
      18    H10     21.493147   18.064925   21.029844 H          1 MOL1         0.0742
      19    C7      20.411261   19.062385   19.425872 C.3        1 MOL1        -0.2871
      20    H11     20.727531   20.071682   19.716806 H          1 MOL1         0.0754
      21    H12     19.392722   19.123200   19.020928 H          1 MOL1         0.0754
      22    H13     21.075804   18.726687   18.619282 H          1 MOL1         0.0754
@<TRIPOS>BOND
    1     1     2    1
    2     1     3    2
    3     1     4    1
    4     4     5    1
    5     4     6    1
    6     4     7    1
    7     7     8    1
    8     7     9    1
    9     7    10    1
   10    10    11    1
   11    10    12    1
   12    10    13    1
   13    13    14    1
   14    13    15    1
   15    13    16    1
   16    16    17    1
   17    16    18    1
   18    16    19    1
   19    19    20    1
   20    19    21    1
   21    19    22    1
@<TRIPOS>SUBSTRUCTURE
       1 MOL1            1 RESIDUE      1      MOL     
@<SCITEGIC>MOL_PROPERTY
VM2 Rank
SciTegic.value.IntegerValue
31

@<SCITEGIC>MOL_PROPERTY
Conf_Id
SciTegic.value.IntegerValue
198

@<SCITEGIC>MOL_PROPERTY
Probability
SciTegic.value.DoubleValue
0.08

@<SCITEGIC>MOL_PROPERTY
Sum Probability
SciTegic.value.DoubleValue
99.12

@<SCITEGIC>MOL_PROPERTY
Delta G
SciTegic.value.DoubleValue
3.610

@<SCITEGIC>MOL_PROPERTY
G
SciTegic.value.DoubleValue
-13.388

@<SCITEGIC>MOL_PROPERTY
E
SciTegic.value.DoubleValue
-33.472

@<SCITEGIC>MOL_PROPERTY
-TS
SciTegic.value.DoubleValue
20.083

@<SCITEGIC>MOL_PROPERTY
U+W
SciTegic.value.DoubleValue
-51.356

@<SCITEGIC>MOL_PROPERTY
U
SciTegic.value.DoubleValue
10.428

@<SCITEGIC>MOL_PROPERTY
W
SciTegic.value.DoubleValue
-61.784

@<SCITEGIC>MOL_PROPERTY
W(PB)
SciTegic.value.DoubleValue
-64.014

@<SCITEGIC>MOL_PROPERTY
W(SA)
SciTegic.value.DoubleValue
2.230

@<SCITEGIC>MOL_PROPERTY
Valence
SciTegic.value.DoubleValue
8.445

@<SCITEGIC>MOL_PROPERTY
Coulomb
SciTegic.value.DoubleValue
1.306

@<SCITEGIC>MOL_PROPERTY
VdW
SciTegic.value.DoubleValue
0.676

@<SCITEGIC>MOL_PROPERTY
VdW6
SciTegic.value.DoubleValue
-8.929

@<SCITEGIC>MOL_PROPERTY
VdW12
SciTegic.value.DoubleValue
9.604

@<SCITEGIC>MOL_PROPERTY
Bond
SciTegic.value.DoubleValue
0.209

@<SCITEGIC>MOL_PROPERTY
Angle
SciTegic.value.DoubleValue
3.066

@<SCITEGIC>MOL_PROPERTY
Pdih
SciTegic.value.DoubleValue
5.170

@<SCITEGIC>MOL_PROPERTY
Idih
SciTegic.value.DoubleValue
0.001

@<SCITEGIC>MOL_PROPERTY
Tether
SciTegic.value.DoubleValue
0.000

@<TRIPOS>MOLECULE
guest-s21_vm2.mol2 : vm2 ligand conformer 32
          22          21           1
SMALL
USER_CHARGES
 
@<TRIPOS>ATOM
       1    C1      19.673126   18.880323   25.513918 C.2        1 MOL1         0.6145
       2    O1      18.983910   19.601970   26.207830 O.co2      1 MOL1        -0.6735
       3    O2      19.484227   17.686155   25.391262 O.co2      1 MOL1        -0.6735
       4    C2      20.857977   19.504623   24.782111 C.3        1 MOL1        -0.1985
       5    H1      21.524051   18.703036   24.443714 H          1 MOL1         0.0740
       6    H2      21.424652   20.086918   25.518002 H          1 MOL1         0.0740
       7    C3      20.459150   20.426001   23.596721 C.3        1 MOL1        -0.1882
       8    H3      19.859439   21.259778   23.987220 H          1 MOL1         0.0742
       9    H4      21.365484   20.874184   23.167745 H          1 MOL1         0.0742
      10    C4      19.658241   19.721779   22.473622 C.3        1 MOL1        -0.1880
      11    H5      19.353708   20.484555   21.746004 H          1 MOL1         0.0742
      12    H6      18.731605   19.300559   22.886955 H          1 MOL1         0.0742
      13    C5      20.457243   18.609370   21.751412 C.3        1 MOL1        -0.1880
      14    H7      21.394037   19.022360   21.353484 H          1 MOL1         0.0742
      15    H8      20.738575   17.835771   22.477586 H          1 MOL1         0.0742
      16    C6      19.666297   17.926743   20.611051 C.3        1 MOL1        -0.1856
      17    H9      18.721364   17.526219   21.003557 H          1 MOL1         0.0742
      18    H10     20.243144   17.063434   20.251716 H          1 MOL1         0.0742
      19    C7      19.379831   18.862036   19.416072 C.3        1 MOL1        -0.2871
      20    H11     18.703319   19.678350   19.697697 H          1 MOL1         0.0754
      21    H12     18.904163   18.304761   18.598709 H          1 MOL1         0.0754
      22    H13     20.308618   19.301370   19.029499 H          1 MOL1         0.0754
@<TRIPOS>BOND
    1     1     2    1
    2     1     3    2
    3     1     4    1
    4     4     5    1
    5     4     6    1
    6     4     7    1
    7     7     8    1
    8     7     9    1
    9     7    10    1
   10    10    11    1
   11    10    12    1
   12    10    13    1
   13    13    14    1
   14    13    15    1
   15    13    16    1
   16    16    17    1
   17    16    18    1
   18    16    19    1
   19    19    20    1
   20    19    21    1
   21    19    22    1
@<TRIPOS>SUBSTRUCTURE
       1 MOL1            1 RESIDUE      1      MOL     
@<SCITEGIC>MOL_PROPERTY
VM2 Rank
SciTegic.value.IntegerValue
32

@<SCITEGIC>MOL_PROPERTY
Conf_Id
SciTegic.value.IntegerValue
83

@<SCITEGIC>MOL_PROPERTY
Probability
SciTegic.value.DoubleValue
0.08

@<SCITEGIC>MOL_PROPERTY
Sum Probability
SciTegic.value.DoubleValue
99.20

@<SCITEGIC>MOL_PROPERTY
Delta G
SciTegic.value.DoubleValue
3.611

@<SCITEGIC>MOL_PROPERTY
G
SciTegic.value.DoubleValue
-13.387

@<SCITEGIC>MOL_PROPERTY
E
SciTegic.value.DoubleValue
-33.469

@<SCITEGIC>MOL_PROPERTY
-TS
SciTegic.value.DoubleValue
20.083

@<SCITEGIC>MOL_PROPERTY
U+W
SciTegic.value.DoubleValue
-51.354

@<SCITEGIC>MOL_PROPERTY
U
SciTegic.value.DoubleValue
10.427

@<SCITEGIC>MOL_PROPERTY
W
SciTegic.value.DoubleValue
-61.781

@<SCITEGIC>MOL_PROPERTY
W(PB)
SciTegic.value.DoubleValue
-64.012

@<SCITEGIC>MOL_PROPERTY
W(SA)
SciTegic.value.DoubleValue
2.231

@<SCITEGIC>MOL_PROPERTY
Valence
SciTegic.value.DoubleValue
8.446

@<SCITEGIC>MOL_PROPERTY
Coulomb
SciTegic.value.DoubleValue
1.305

@<SCITEGIC>MOL_PROPERTY
VdW
SciTegic.value.DoubleValue
0.676

@<SCITEGIC>MOL_PROPERTY
VdW6
SciTegic.value.DoubleValue
-8.928

@<SCITEGIC>MOL_PROPERTY
VdW12
SciTegic.value.DoubleValue
9.604

@<SCITEGIC>MOL_PROPERTY
Bond
SciTegic.value.DoubleValue
0.209

@<SCITEGIC>MOL_PROPERTY
Angle
SciTegic.value.DoubleValue
3.066

@<SCITEGIC>MOL_PROPERTY
Pdih
SciTegic.value.DoubleValue
5.170

@<SCITEGIC>MOL_PROPERTY
Idih
SciTegic.value.DoubleValue
0.001

@<SCITEGIC>MOL_PROPERTY
Tether
SciTegic.value.DoubleValue
0.000

@<TRIPOS>MOLECULE
guest-s21_vm2.mol2 : vm2 ligand conformer 33
          22          21           1
SMALL
USER_CHARGES
 
@<TRIPOS>ATOM
       1    C1      20.142819   19.012230   25.441392 C.2        1 MOL1         0.6145
       2    O1      19.449701   19.300670   26.397310 O.co2      1 MOL1        -0.6735
       3    O2      20.768093   17.973809   25.354245 O.co2      1 MOL1        -0.6735
       4    C2      20.255753   20.023770   24.304208 C.3        1 MOL1        -0.1985
       5    H1      21.108801   19.749458   23.673024 H          1 MOL1         0.0740
       6    H2      20.500782   20.993325   24.753104 H          1 MOL1         0.0740
       7    C3      18.966503   20.164096   23.449624 C.3        1 MOL1        -0.1882
       8    H3      18.148738   20.503903   24.099978 H          1 MOL1         0.0742
       9    H4      19.109726   20.959362   22.706766 H          1 MOL1         0.0742
      10    C4      18.524111   18.859041   22.738574 C.3        1 MOL1        -0.1880
      11    H5      17.603799   19.059911   22.173540 H          1 MOL1         0.0742
      12    H6      18.254536   18.112078   23.497816 H          1 MOL1         0.0742
      13    C5      19.573432   18.237168   21.783388 C.3        1 MOL1        -0.1880
      14    H7      20.460479   17.928429   22.352570 H          1 MOL1         0.0742
      15    H8      19.150830   17.316398   21.358943 H          1 MOL1         0.0742
      16    C6      19.991361   19.175913   20.629286 C.3        1 MOL1        -0.1856
      17    H9      20.486297   20.069784   21.031260 H          1 MOL1         0.0742
      18    H10     19.098445   19.518579   20.088601 H          1 MOL1         0.0742
      19    C7      20.948226   18.472302   19.645973 C.3        1 MOL1        -0.2871
      20    H11     21.862661   18.143155   20.156709 H          1 MOL1         0.0754
      21    H12     21.238806   19.152895   18.835197 H          1 MOL1         0.0754
      22    H13     20.471349   17.592177   19.195122 H          1 MOL1         0.0754
@<TRIPOS>BOND
    1     1     2    1
    2     1     3    2
    3     1     4    1
    4     4     5    1
    5     4     6    1
    6     4     7    1
    7     7     8    1
    8     7     9    1
    9     7    10    1
   10    10    11    1
   11    10    12    1
   12    10    13    1
   13    13    14    1
   14    13    15    1
   15    13    16    1
   16    16    17    1
   17    16    18    1
   18    16    19    1
   19    19    20    1
   20    19    21    1
   21    19    22    1
@<TRIPOS>SUBSTRUCTURE
       1 MOL1            1 RESIDUE      1      MOL     
@<SCITEGIC>MOL_PROPERTY
VM2 Rank
SciTegic.value.IntegerValue
33

@<SCITEGIC>MOL_PROPERTY
Conf_Id
SciTegic.value.IntegerValue
141

@<SCITEGIC>MOL_PROPERTY
Probability
SciTegic.value.DoubleValue
0.08

@<SCITEGIC>MOL_PROPERTY
Sum Probability
SciTegic.value.DoubleValue
99.28

@<SCITEGIC>MOL_PROPERTY
Delta G
SciTegic.value.DoubleValue
3.617

@<SCITEGIC>MOL_PROPERTY
G
SciTegic.value.DoubleValue
-13.381

@<SCITEGIC>MOL_PROPERTY
E
SciTegic.value.DoubleValue
-33.787

@<SCITEGIC>MOL_PROPERTY
-TS
SciTegic.value.DoubleValue
20.405

@<SCITEGIC>MOL_PROPERTY
U+W
SciTegic.value.DoubleValue
-51.672

@<SCITEGIC>MOL_PROPERTY
U
SciTegic.value.DoubleValue
10.053

@<SCITEGIC>MOL_PROPERTY
W
SciTegic.value.DoubleValue
-61.725

@<SCITEGIC>MOL_PROPERTY
W(PB)
SciTegic.value.DoubleValue
-63.942

@<SCITEGIC>MOL_PROPERTY
W(SA)
SciTegic.value.DoubleValue
2.217

@<SCITEGIC>MOL_PROPERTY
Valence
SciTegic.value.DoubleValue
8.321

@<SCITEGIC>MOL_PROPERTY
Coulomb
SciTegic.value.DoubleValue
1.288

@<SCITEGIC>MOL_PROPERTY
VdW
SciTegic.value.DoubleValue
0.445

@<SCITEGIC>MOL_PROPERTY
VdW6
SciTegic.value.DoubleValue
-9.397

@<SCITEGIC>MOL_PROPERTY
VdW12
SciTegic.value.DoubleValue
9.842

@<SCITEGIC>MOL_PROPERTY
Bond
SciTegic.value.DoubleValue
0.210

@<SCITEGIC>MOL_PROPERTY
Angle
SciTegic.value.DoubleValue
3.152

@<SCITEGIC>MOL_PROPERTY
Pdih
SciTegic.value.DoubleValue
4.957

@<SCITEGIC>MOL_PROPERTY
Idih
SciTegic.value.DoubleValue
0.001

@<SCITEGIC>MOL_PROPERTY
Tether
SciTegic.value.DoubleValue
0.000

@<TRIPOS>MOLECULE
guest-s21_vm2.mol2 : vm2 ligand conformer 34
          22          21           1
SMALL
USER_CHARGES
 
@<TRIPOS>ATOM
       1    C1      19.561136   19.455090   25.632730 C.2        1 MOL1         0.6145
       2    O1      20.201796   20.441250   25.938691 O.co2      1 MOL1        -0.6735
       3    O2      18.972590   18.759305   26.436521 O.co2      1 MOL1        -0.6735
       4    C2      19.511655   19.055522   24.162390 C.3        1 MOL1        -0.1985
       5    H1      19.535870   19.975858   23.568146 H          1 MOL1         0.0740
       6    H2      18.549012   18.565358   23.974404 H          1 MOL1         0.0740
       7    C3      20.678246   18.120565   23.754883 C.3        1 MOL1        -0.1882
       8    H3      21.629698   18.656930   23.874497 H          1 MOL1         0.0742
       9    H4      20.712322   17.274572   24.455281 H          1 MOL1         0.0742
      10    C4      20.575032   17.561208   22.313655 C.3        1 MOL1        -0.1880
      11    H5      19.674302   16.940253   22.213383 H          1 MOL1         0.0742
      12    H6      21.424366   16.881187   22.161512 H          1 MOL1         0.0742
      13    C5      20.613008   18.637299   21.199071 C.3        1 MOL1        -0.1880
      14    H7      21.176806   19.515811   21.541578 H          1 MOL1         0.0742
      15    H8      21.169586   18.232031   20.342932 H          1 MOL1         0.0742
      16    C6      19.209584   19.057103   20.704172 C.3        1 MOL1        -0.1856
      17    H9      18.606019   19.441881   21.534847 H          1 MOL1         0.0742
      18    H10     18.680131   18.177878   20.311950 H          1 MOL1         0.0742
      19    C7      19.296952   20.131657   19.601887 C.3        1 MOL1        -0.2871
      20    H11     19.793834   21.036753   19.975074 H          1 MOL1         0.0754
      21    H12     18.293951   20.413729   19.256261 H          1 MOL1         0.0754
      22    H13     19.862272   19.762033   18.736368 H          1 MOL1         0.0754
@<TRIPOS>BOND
    1     1     2    1
    2     1     3    2
    3     1     4    1
    4     4     5    1
    5     4     6    1
    6     4     7    1
    7     7     8    1
    8     7     9    1
    9     7    10    1
   10    10    11    1
   11    10    12    1
   12    10    13    1
   13    13    14    1
   14    13    15    1
   15    13    16    1
   16    16    17    1
   17    16    18    1
   18    16    19    1
   19    19    20    1
   20    19    21    1
   21    19    22    1
@<TRIPOS>SUBSTRUCTURE
       1 MOL1            1 RESIDUE      1      MOL     
@<SCITEGIC>MOL_PROPERTY
VM2 Rank
SciTegic.value.IntegerValue
34

@<SCITEGIC>MOL_PROPERTY
Conf_Id
SciTegic.value.IntegerValue
6

@<SCITEGIC>MOL_PROPERTY
Probability
SciTegic.value.DoubleValue
0.06

@<SCITEGIC>MOL_PROPERTY
Sum Probability
SciTegic.value.DoubleValue
99.34

@<SCITEGIC>MOL_PROPERTY
Delta G
SciTegic.value.DoubleValue
3.781

@<SCITEGIC>MOL_PROPERTY
G
SciTegic.value.DoubleValue
-13.217

@<SCITEGIC>MOL_PROPERTY
E
SciTegic.value.DoubleValue
-33.157

@<SCITEGIC>MOL_PROPERTY
-TS
SciTegic.value.DoubleValue
19.940

@<SCITEGIC>MOL_PROPERTY
U+W
SciTegic.value.DoubleValue
-51.042

@<SCITEGIC>MOL_PROPERTY
U
SciTegic.value.DoubleValue
10.045

@<SCITEGIC>MOL_PROPERTY
W
SciTegic.value.DoubleValue
-61.086

@<SCITEGIC>MOL_PROPERTY
W(PB)
SciTegic.value.DoubleValue
-63.356

@<SCITEGIC>MOL_PROPERTY
W(SA)
SciTegic.value.DoubleValue
2.270

@<SCITEGIC>MOL_PROPERTY
Valence
SciTegic.value.DoubleValue
10.100

@<SCITEGIC>MOL_PROPERTY
Coulomb
SciTegic.value.DoubleValue
-0.883

@<SCITEGIC>MOL_PROPERTY
VdW
SciTegic.value.DoubleValue
0.828

@<SCITEGIC>MOL_PROPERTY
VdW6
SciTegic.value.DoubleValue
-8.177

@<SCITEGIC>MOL_PROPERTY
VdW12
SciTegic.value.DoubleValue
9.004

@<SCITEGIC>MOL_PROPERTY
Bond
SciTegic.value.DoubleValue
0.182

@<SCITEGIC>MOL_PROPERTY
Angle
SciTegic.value.DoubleValue
2.988

@<SCITEGIC>MOL_PROPERTY
Pdih
SciTegic.value.DoubleValue
6.930

@<SCITEGIC>MOL_PROPERTY
Idih
SciTegic.value.DoubleValue
0.001

@<SCITEGIC>MOL_PROPERTY
Tether
SciTegic.value.DoubleValue
0.000

@<TRIPOS>MOLECULE
guest-s21_vm2.mol2 : vm2 ligand conformer 35
          22          21           1
SMALL
USER_CHARGES
 
@<TRIPOS>ATOM
       1    C1      20.053224   18.786801   25.343622 C.2        1 MOL1         0.6145
       2    O1      19.166219   18.478915   26.115536 O.co2      1 MOL1        -0.6735
       3    O2      20.981007   18.055070   25.059915 O.co2      1 MOL1        -0.6735
       4    C2      20.016549   20.181968   24.725763 C.3        1 MOL1        -0.1985
       5    H1      20.991690   20.390442   24.271002 H          1 MOL1         0.0740
       6    H2      19.897630   20.898386   25.546888 H          1 MOL1         0.0740
       7    C3      18.875027   20.390264   23.693168 C.3        1 MOL1        -0.1882
       8    H3      17.910664   20.240323   24.197978 H          1 MOL1         0.0742
       9    H4      18.884325   21.434179   23.351904 H          1 MOL1         0.0742
      10    C4      18.946039   19.451154   22.464136 C.3        1 MOL1        -0.1880
      11    H5      18.064285   19.632895   21.834882 H          1 MOL1         0.0742
      12    H6      18.878960   18.407699   22.799510 H          1 MOL1         0.0742
      13    C5      20.224113   19.650121   21.613742 C.3        1 MOL1        -0.1880
      14    H7      20.350440   20.719951   21.399262 H          1 MOL1         0.0742
      15    H8      21.106920   19.337762   22.187526 H          1 MOL1         0.0742
      16    C6      20.193037   18.878934   20.273726 C.3        1 MOL1        -0.1856
      17    H9      21.082970   19.150692   19.689516 H          1 MOL1         0.0742
      18    H10     19.323893   19.197389   19.681798 H          1 MOL1         0.0742
      19    C7      20.164784   17.345773   20.454392 C.3        1 MOL1        -0.2871
      20    H11     21.008222   17.007858   21.070704 H          1 MOL1         0.0754
      21    H12     20.232893   16.842429   19.481346 H          1 MOL1         0.0754
      22    H13     19.234885   17.016957   20.935043 H          1 MOL1         0.0754
@<TRIPOS>BOND
    1     1     2    1
    2     1     3    2
    3     1     4    1
    4     4     5    1
    5     4     6    1
    6     4     7    1
    7     7     8    1
    8     7     9    1
    9     7    10    1
   10    10    11    1
   11    10    12    1
   12    10    13    1
   13    13    14    1
   14    13    15    1
   15    13    16    1
   16    16    17    1
   17    16    18    1
   18    16    19    1
   19    19    20    1
   20    19    21    1
   21    19    22    1
@<TRIPOS>SUBSTRUCTURE
       1 MOL1            1 RESIDUE      1      MOL     
@<SCITEGIC>MOL_PROPERTY
VM2 Rank
SciTegic.value.IntegerValue
35

@<SCITEGIC>MOL_PROPERTY
Conf_Id
SciTegic.value.IntegerValue
55

@<SCITEGIC>MOL_PROPERTY
Probability
SciTegic.value.DoubleValue
0.06

@<SCITEGIC>MOL_PROPERTY
Sum Probability
SciTegic.value.DoubleValue
99.39

@<SCITEGIC>MOL_PROPERTY
Delta G
SciTegic.value.DoubleValue
3.789

@<SCITEGIC>MOL_PROPERTY
G
SciTegic.value.DoubleValue
-13.209

@<SCITEGIC>MOL_PROPERTY
E
SciTegic.value.DoubleValue
-33.371

@<SCITEGIC>MOL_PROPERTY
-TS
SciTegic.value.DoubleValue
20.162

@<SCITEGIC>MOL_PROPERTY
U+W
SciTegic.value.DoubleValue
-51.256

@<SCITEGIC>MOL_PROPERTY
U
SciTegic.value.DoubleValue
10.893

@<SCITEGIC>MOL_PROPERTY
W
SciTegic.value.DoubleValue
-62.149

@<SCITEGIC>MOL_PROPERTY
W(PB)
SciTegic.value.DoubleValue
-64.367

@<SCITEGIC>MOL_PROPERTY
W(SA)
SciTegic.value.DoubleValue
2.218

@<SCITEGIC>MOL_PROPERTY
Valence
SciTegic.value.DoubleValue
8.348

@<SCITEGIC>MOL_PROPERTY
Coulomb
SciTegic.value.DoubleValue
2.011

@<SCITEGIC>MOL_PROPERTY
VdW
SciTegic.value.DoubleValue
0.534

@<SCITEGIC>MOL_PROPERTY
VdW6
SciTegic.value.DoubleValue
-9.124

@<SCITEGIC>MOL_PROPERTY
VdW12
SciTegic.value.DoubleValue
9.658

@<SCITEGIC>MOL_PROPERTY
Bond
SciTegic.value.DoubleValue
0.201

@<SCITEGIC>MOL_PROPERTY
Angle
SciTegic.value.DoubleValue
2.939

@<SCITEGIC>MOL_PROPERTY
Pdih
SciTegic.value.DoubleValue
5.207

@<SCITEGIC>MOL_PROPERTY
Idih
SciTegic.value.DoubleValue
0.002

@<SCITEGIC>MOL_PROPERTY
Tether
SciTegic.value.DoubleValue
0.000

@<TRIPOS>MOLECULE
guest-s21_vm2.mol2 : vm2 ligand conformer 36
          22          21           1
SMALL
USER_CHARGES
 
@<TRIPOS>ATOM
       1    C1      20.273228   18.962379   25.236002 C.2        1 MOL1         0.6145
       2    O1      20.759339   20.045131   25.498374 O.co2      1 MOL1        -0.6735
       3    O2      20.914723   17.930766   25.199765 O.co2      1 MOL1        -0.6735
       4    C2      18.764834   18.880485   25.009077 C.3        1 MOL1        -0.1985
       5    H1      18.294622   19.180713   25.952632 H          1 MOL1         0.0740
       6    H2      18.486122   17.833484   24.838928 H          1 MOL1         0.0740
       7    C3      18.216276   19.776734   23.863256 C.3        1 MOL1        -0.1882
       8    H3      17.140322   19.920332   24.030958 H          1 MOL1         0.0742
       9    H4      18.667142   20.777178   23.921590 H          1 MOL1         0.0742
      10    C4      18.397862   19.194489   22.439554 C.3        1 MOL1        -0.1880
      11    H5      17.841014   19.829568   21.737009 H          1 MOL1         0.0742
      12    H6      17.937891   18.198296   22.386122 H          1 MOL1         0.0742
      13    C5      19.869603   19.112674   21.975021 C.3        1 MOL1        -0.1880
      14    H7      20.358579   20.085011   22.125054 H          1 MOL1         0.0742
      15    H8      20.413663   18.381590   22.586229 H          1 MOL1         0.0742
      16    C6      19.977430   18.703108   20.490913 C.3        1 MOL1        -0.1856
      17    H9      19.444042   19.431730   19.864844 H          1 MOL1         0.0742
      18    H10     19.487263   17.731484   20.338936 H          1 MOL1         0.0742
      19    C7      21.446705   18.613234   20.032038 C.3        1 MOL1        -0.2871
      20    H11     21.505233   18.320186   18.975761 H          1 MOL1         0.0754
      21    H12     21.997056   17.868440   20.621865 H          1 MOL1         0.0754
      22    H13     21.952813   19.581028   20.144286 H          1 MOL1         0.0754
@<TRIPOS>BOND
    1     1     2    1
    2     1     3    2
    3     1     4    1
    4     4     5    1
    5     4     6    1
    6     4     7    1
    7     7     8    1
    8     7     9    1
    9     7    10    1
   10    10    11    1
   11    10    12    1
   12    10    13    1
   13    13    14    1
   14    13    15    1
   15    13    16    1
   16    16    17    1
   17    16    18    1
   18    16    19    1
   19    19    20    1
   20    19    21    1
   21    19    22    1
@<TRIPOS>SUBSTRUCTURE
       1 MOL1            1 RESIDUE      1      MOL     
@<SCITEGIC>MOL_PROPERTY
VM2 Rank
SciTegic.value.IntegerValue
36

@<SCITEGIC>MOL_PROPERTY
Conf_Id
SciTegic.value.IntegerValue
265

@<SCITEGIC>MOL_PROPERTY
Probability
SciTegic.value.DoubleValue
0.06

@<SCITEGIC>MOL_PROPERTY
Sum Probability
SciTegic.value.DoubleValue
99.45

@<SCITEGIC>MOL_PROPERTY
Delta G
SciTegic.value.DoubleValue
3.798

@<SCITEGIC>MOL_PROPERTY
G
SciTegic.value.DoubleValue
-13.200

@<SCITEGIC>MOL_PROPERTY
E
SciTegic.value.DoubleValue
-33.389

@<SCITEGIC>MOL_PROPERTY
-TS
SciTegic.value.DoubleValue
20.188

@<SCITEGIC>MOL_PROPERTY
U+W
SciTegic.value.DoubleValue
-51.274

@<SCITEGIC>MOL_PROPERTY
U
SciTegic.value.DoubleValue
11.237

@<SCITEGIC>MOL_PROPERTY
W
SciTegic.value.DoubleValue
-62.510

@<SCITEGIC>MOL_PROPERTY
W(PB)
SciTegic.value.DoubleValue
-64.777

@<SCITEGIC>MOL_PROPERTY
W(SA)
SciTegic.value.DoubleValue
2.267

@<SCITEGIC>MOL_PROPERTY
Valence
SciTegic.value.DoubleValue
9.030

@<SCITEGIC>MOL_PROPERTY
Coulomb
SciTegic.value.DoubleValue
1.667

@<SCITEGIC>MOL_PROPERTY
VdW
SciTegic.value.DoubleValue
0.540

@<SCITEGIC>MOL_PROPERTY
VdW6
SciTegic.value.DoubleValue
-8.824

@<SCITEGIC>MOL_PROPERTY
VdW12
SciTegic.value.DoubleValue
9.364

@<SCITEGIC>MOL_PROPERTY
Bond
SciTegic.value.DoubleValue
0.186

@<SCITEGIC>MOL_PROPERTY
Angle
SciTegic.value.DoubleValue
3.195

@<SCITEGIC>MOL_PROPERTY
Pdih
SciTegic.value.DoubleValue
5.641

@<SCITEGIC>MOL_PROPERTY
Idih
SciTegic.value.DoubleValue
0.007

@<SCITEGIC>MOL_PROPERTY
Tether
SciTegic.value.DoubleValue
0.000

@<TRIPOS>MOLECULE
guest-s21_vm2.mol2 : vm2 ligand conformer 37
          22          21           1
SMALL
USER_CHARGES
 
@<TRIPOS>ATOM
       1    C1      19.599792   18.744260   25.659985 C.2        1 MOL1         0.6145
       2    O1      18.936293   19.431707   26.410832 O.co2      1 MOL1        -0.6735
       3    O2      20.342000   17.859321   26.037582 O.co2      1 MOL1        -0.6735
       4    C2      19.513367   19.022765   24.163667 C.3        1 MOL1        -0.1985
       5    H1      18.504144   19.390201   23.942897 H          1 MOL1         0.0740
       6    H2      19.639354   18.067793   23.641282 H          1 MOL1         0.0740
       7    C3      20.573681   20.044524   23.681086 C.3        1 MOL1        -0.1882
       8    H3      20.513152   20.940264   24.314653 H          1 MOL1         0.0742
       9    H4      21.577055   19.624921   23.837379 H          1 MOL1         0.0742
      10    C4      20.416556   20.477666   22.201773 C.3        1 MOL1        -0.1880
      11    H5      21.187957   21.231960   21.994589 H          1 MOL1         0.0742
      12    H6      19.454355   20.988036   22.058081 H          1 MOL1         0.0742
      13    C5      20.575362   19.329983   21.172542 C.3        1 MOL1        -0.1880
      14    H7      21.088513   19.726413   20.285687 H          1 MOL1         0.0742
      15    H8      21.229345   18.546315   21.578909 H          1 MOL1         0.0742
      16    C6      19.227644   18.724360   20.716876 C.3        1 MOL1        -0.1856
      17    H9      18.607956   19.508636   20.260703 H          1 MOL1         0.0742
      18    H10     18.665666   18.341269   21.576986 H          1 MOL1         0.0742
      19    C7      19.435305   17.584415   19.699657 C.3        1 MOL1        -0.2871
      20    H11     19.960931   17.945725   18.806067 H          1 MOL1         0.0754
      21    H12     18.470142   17.169916   19.380778 H          1 MOL1         0.0754
      22    H13     20.025602   16.769576   20.138913 H          1 MOL1         0.0754
@<TRIPOS>BOND
    1     1     2    1
    2     1     3    2
    3     1     4    1
    4     4     5    1
    5     4     6    1
    6     4     7    1
    7     7     8    1
    8     7     9    1
    9     7    10    1
   10    10    11    1
   11    10    12    1
   12    10    13    1
   13    13    14    1
   14    13    15    1
   15    13    16    1
   16    16    17    1
   17    16    18    1
   18    16    19    1
   19    19    20    1
   20    19    21    1
   21    19    22    1
@<TRIPOS>SUBSTRUCTURE
       1 MOL1            1 RESIDUE      1      MOL     
@<SCITEGIC>MOL_PROPERTY
VM2 Rank
SciTegic.value.IntegerValue
37

@<SCITEGIC>MOL_PROPERTY
Conf_Id
SciTegic.value.IntegerValue
364

@<SCITEGIC>MOL_PROPERTY
Probability
SciTegic.value.DoubleValue
0.05

@<SCITEGIC>MOL_PROPERTY
Sum Probability
SciTegic.value.DoubleValue
99.51

@<SCITEGIC>MOL_PROPERTY
Delta G
SciTegic.value.DoubleValue
3.828

@<SCITEGIC>MOL_PROPERTY
G
SciTegic.value.DoubleValue
-13.170

@<SCITEGIC>MOL_PROPERTY
E
SciTegic.value.DoubleValue
-33.110

@<SCITEGIC>MOL_PROPERTY
-TS
SciTegic.value.DoubleValue
19.939

@<SCITEGIC>MOL_PROPERTY
U+W
SciTegic.value.DoubleValue
-50.995

@<SCITEGIC>MOL_PROPERTY
U
SciTegic.value.DoubleValue
10.045

@<SCITEGIC>MOL_PROPERTY
W
SciTegic.value.DoubleValue
-61.040

@<SCITEGIC>MOL_PROPERTY
W(PB)
SciTegic.value.DoubleValue
-63.313

@<SCITEGIC>MOL_PROPERTY
W(SA)
SciTegic.value.DoubleValue
2.273

@<SCITEGIC>MOL_PROPERTY
Valence
SciTegic.value.DoubleValue
10.100

@<SCITEGIC>MOL_PROPERTY
Coulomb
SciTegic.value.DoubleValue
-0.883

@<SCITEGIC>MOL_PROPERTY
VdW
SciTegic.value.DoubleValue
0.828

@<SCITEGIC>MOL_PROPERTY
VdW6
SciTegic.value.DoubleValue
-8.177

@<SCITEGIC>MOL_PROPERTY
VdW12
SciTegic.value.DoubleValue
9.005

@<SCITEGIC>MOL_PROPERTY
Bond
SciTegic.value.DoubleValue
0.182

@<SCITEGIC>MOL_PROPERTY
Angle
SciTegic.value.DoubleValue
2.988

@<SCITEGIC>MOL_PROPERTY
Pdih
SciTegic.value.DoubleValue
6.930

@<SCITEGIC>MOL_PROPERTY
Idih
SciTegic.value.DoubleValue
0.001

@<SCITEGIC>MOL_PROPERTY
Tether
SciTegic.value.DoubleValue
0.000

@<TRIPOS>MOLECULE
guest-s21_vm2.mol2 : vm2 ligand conformer 38
          22          21           1
SMALL
USER_CHARGES
 
@<TRIPOS>ATOM
       1    C1      20.198991   18.944986   25.335892 C.2        1 MOL1         0.6145
       2    O1      20.469450   19.893282   26.046531 O.co2      1 MOL1        -0.6735
       3    O2      20.990548   18.065493   25.059069 O.co2      1 MOL1        -0.6735
       4    C2      18.777249   18.836968   24.791302 C.3        1 MOL1        -0.1985
       5    H1      18.094134   18.941028   25.642282 H          1 MOL1         0.0740
       6    H2      18.628468   17.825661   24.395970 H          1 MOL1         0.0740
       7    C3      18.425217   19.902140   23.716965 C.3        1 MOL1        -0.1882
       8    H3      17.370362   19.791037   23.431934 H          1 MOL1         0.0742
       9    H4      18.518957   20.900655   24.165842 H          1 MOL1         0.0742
      10    C4      19.306322   19.842263   22.445133 C.3        1 MOL1        -0.1880
      11    H5      20.355629   20.010598   22.721525 H          1 MOL1         0.0742
      12    H6      19.021773   20.672189   21.784273 H          1 MOL1         0.0742
      13    C5      19.173151   18.509332   21.669383 C.3        1 MOL1        -0.1880
      14    H7      19.585112   17.685948   22.268109 H          1 MOL1         0.0742
      15    H8      18.108368   18.286253   21.517820 H          1 MOL1         0.0742
      16    C6      19.873307   18.531728   20.290751 C.3        1 MOL1        -0.1856
      17    H9      19.455465   19.340004   19.674879 H          1 MOL1         0.0742
      18    H10     19.648450   17.593257   19.765543 H          1 MOL1         0.0742
      19    C7      21.405765   18.692808   20.388974 C.3        1 MOL1        -0.2871
      20    H11     21.842021   17.913005   21.026940 H          1 MOL1         0.0754
      21    H12     21.679081   19.670218   20.805897 H          1 MOL1         0.0754
      22    H13     21.865325   18.614207   19.395274 H          1 MOL1         0.0754
@<TRIPOS>BOND
    1     1     2    1
    2     1     3    2
    3     1     4    1
    4     4     5    1
    5     4     6    1
    6     4     7    1
    7     7     8    1
    8     7     9    1
    9     7    10    1
   10    10    11    1
   11    10    12    1
   12    10    13    1
   13    13    14    1
   14    13    15    1
   15    13    16    1
   16    16    17    1
   17    16    18    1
   18    16    19    1
   19    19    20    1
   20    19    21    1
   21    19    22    1
@<TRIPOS>SUBSTRUCTURE
       1 MOL1            1 RESIDUE      1      MOL     
@<SCITEGIC>MOL_PROPERTY
VM2 Rank
SciTegic.value.IntegerValue
38

@<SCITEGIC>MOL_PROPERTY
Conf_Id
SciTegic.value.IntegerValue
271

@<SCITEGIC>MOL_PROPERTY
Probability
SciTegic.value.DoubleValue
0.05

@<SCITEGIC>MOL_PROPERTY
Sum Probability
SciTegic.value.DoubleValue
99.56

@<SCITEGIC>MOL_PROPERTY
Delta G
SciTegic.value.DoubleValue
3.834

@<SCITEGIC>MOL_PROPERTY
G
SciTegic.value.DoubleValue
-13.164

@<SCITEGIC>MOL_PROPERTY
E
SciTegic.value.DoubleValue
-33.327

@<SCITEGIC>MOL_PROPERTY
-TS
SciTegic.value.DoubleValue
20.163

@<SCITEGIC>MOL_PROPERTY
U+W
SciTegic.value.DoubleValue
-51.211

@<SCITEGIC>MOL_PROPERTY
U
SciTegic.value.DoubleValue
10.894

@<SCITEGIC>MOL_PROPERTY
W
SciTegic.value.DoubleValue
-62.105

@<SCITEGIC>MOL_PROPERTY
W(PB)
SciTegic.value.DoubleValue
-64.319

@<SCITEGIC>MOL_PROPERTY
W(SA)
SciTegic.value.DoubleValue
2.214

@<SCITEGIC>MOL_PROPERTY
Valence
SciTegic.value.DoubleValue
8.348

@<SCITEGIC>MOL_PROPERTY
Coulomb
SciTegic.value.DoubleValue
2.012

@<SCITEGIC>MOL_PROPERTY
VdW
SciTegic.value.DoubleValue
0.534

@<SCITEGIC>MOL_PROPERTY
VdW6
SciTegic.value.DoubleValue
-9.125

@<SCITEGIC>MOL_PROPERTY
VdW12
SciTegic.value.DoubleValue
9.658

@<SCITEGIC>MOL_PROPERTY
Bond
SciTegic.value.DoubleValue
0.201

@<SCITEGIC>MOL_PROPERTY
Angle
SciTegic.value.DoubleValue
2.939

@<SCITEGIC>MOL_PROPERTY
Pdih
SciTegic.value.DoubleValue
5.206

@<SCITEGIC>MOL_PROPERTY
Idih
SciTegic.value.DoubleValue
0.002

@<SCITEGIC>MOL_PROPERTY
Tether
SciTegic.value.DoubleValue
0.000

@<TRIPOS>MOLECULE
guest-s21_vm2.mol2 : vm2 ligand conformer 39
          22          21           1
SMALL
USER_CHARGES
 
@<TRIPOS>ATOM
       1    C1      20.256167   19.279010   25.223829 C.2        1 MOL1         0.6145
       2    O1      20.783204   20.367822   25.106450 O.co2      1 MOL1        -0.6735
       3    O2      20.854766   18.277934   25.565909 O.co2      1 MOL1        -0.6735
       4    C2      18.748640   19.180865   24.997591 C.3        1 MOL1        -0.1985
       5    H1      18.359779   20.175817   24.749193 H          1 MOL1         0.0740
       6    H2      18.309553   18.904766   25.963254 H          1 MOL1         0.0740
       7    C3      18.304190   18.146065   23.925801 C.3        1 MOL1        -0.1882
       8    H3      18.859615   17.207195   24.058468 H          1 MOL1         0.0742
       9    H4      17.249193   17.901004   24.108411 H          1 MOL1         0.0742
      10    C4      18.428065   18.634063   22.461074 C.3        1 MOL1        -0.1880
      11    H5      17.864085   19.568154   22.333680 H          1 MOL1         0.0742
      12    H6      17.945444   17.891151   21.811356 H          1 MOL1         0.0742
      13    C5      19.884420   18.837610   21.985567 C.3        1 MOL1        -0.1880
      14    H7      20.344419   19.667314   22.536977 H          1 MOL1         0.0742
      15    H8      20.474263   17.937629   22.207300 H          1 MOL1         0.0742
      16    C6      19.953759   19.141987   20.474112 C.3        1 MOL1        -0.1856
      17    H9      19.362846   20.041008   20.250508 H          1 MOL1         0.0742
      18    H10     19.504148   18.314757   19.907636 H          1 MOL1         0.0742
      19    C7      21.406789   19.353644   20.003668 C.3        1 MOL1        -0.2871
      20    H11     21.871698   20.195923   20.532748 H          1 MOL1         0.0754
      21    H12     21.437878   19.569922   18.927898 H          1 MOL1         0.0754
      22    H13     22.013282   18.457078   20.187258 H          1 MOL1         0.0754
@<TRIPOS>BOND
    1     1     2    1
    2     1     3    2
    3     1     4    1
    4     4     5    1
    5     4     6    1
    6     4     7    1
    7     7     8    1
    8     7     9    1
    9     7    10    1
   10    10    11    1
   11    10    12    1
   12    10    13    1
   13    13    14    1
   14    13    15    1
   15    13    16    1
   16    16    17    1
   17    16    18    1
   18    16    19    1
   19    19    20    1
   20    19    21    1
   21    19    22    1
@<TRIPOS>SUBSTRUCTURE
       1 MOL1            1 RESIDUE      1      MOL     
@<SCITEGIC>MOL_PROPERTY
VM2 Rank
SciTegic.value.IntegerValue
39

@<SCITEGIC>MOL_PROPERTY
Conf_Id
SciTegic.value.IntegerValue
269

@<SCITEGIC>MOL_PROPERTY
Probability
SciTegic.value.DoubleValue
0.05

@<SCITEGIC>MOL_PROPERTY
Sum Probability
SciTegic.value.DoubleValue
99.62

@<SCITEGIC>MOL_PROPERTY
Delta G
SciTegic.value.DoubleValue
3.841

@<SCITEGIC>MOL_PROPERTY
G
SciTegic.value.DoubleValue
-13.157

@<SCITEGIC>MOL_PROPERTY
E
SciTegic.value.DoubleValue
-33.345

@<SCITEGIC>MOL_PROPERTY
-TS
SciTegic.value.DoubleValue
20.188

@<SCITEGIC>MOL_PROPERTY
U+W
SciTegic.value.DoubleValue
-51.230

@<SCITEGIC>MOL_PROPERTY
U
SciTegic.value.DoubleValue
11.237

@<SCITEGIC>MOL_PROPERTY
W
SciTegic.value.DoubleValue
-62.466

@<SCITEGIC>MOL_PROPERTY
W(PB)
SciTegic.value.DoubleValue
-64.732

@<SCITEGIC>MOL_PROPERTY
W(SA)
SciTegic.value.DoubleValue
2.265

@<SCITEGIC>MOL_PROPERTY
Valence
SciTegic.value.DoubleValue
9.029

@<SCITEGIC>MOL_PROPERTY
Coulomb
SciTegic.value.DoubleValue
1.667

@<SCITEGIC>MOL_PROPERTY
VdW
SciTegic.value.DoubleValue
0.540

@<SCITEGIC>MOL_PROPERTY
VdW6
SciTegic.value.DoubleValue
-8.824

@<SCITEGIC>MOL_PROPERTY
VdW12
SciTegic.value.DoubleValue
9.364

@<SCITEGIC>MOL_PROPERTY
Bond
SciTegic.value.DoubleValue
0.186

@<SCITEGIC>MOL_PROPERTY
Angle
SciTegic.value.DoubleValue
3.195

@<SCITEGIC>MOL_PROPERTY
Pdih
SciTegic.value.DoubleValue
5.641

@<SCITEGIC>MOL_PROPERTY
Idih
SciTegic.value.DoubleValue
0.007

@<SCITEGIC>MOL_PROPERTY
Tether
SciTegic.value.DoubleValue
0.000

@<TRIPOS>MOLECULE
guest-s21_vm2.mol2 : vm2 ligand conformer 40
          22          21           1
SMALL
USER_CHARGES
 
@<TRIPOS>ATOM
       1    C1      20.241014   19.074170   25.652443 C.2        1 MOL1         0.6145
       2    O1      19.669528   19.500330   26.636526 O.co2      1 MOL1        -0.6735
       3    O2      21.046651   18.165086   25.683039 O.co2      1 MOL1        -0.6735
       4    C2      19.913931   19.701542   24.302185 C.3        1 MOL1        -0.1985
       5    H1      20.816730   19.658718   23.685000 H          1 MOL1         0.0740
       6    H2      19.690645   20.762295   24.467426 H          1 MOL1         0.0740
       7    C3      18.718505   19.011256   23.593561 C.3        1 MOL1        -0.1882
       8    H3      18.911504   17.934776   23.487140 H          1 MOL1         0.0742
       9    H4      17.840437   19.100677   24.248113 H          1 MOL1         0.0742
      10    C4      18.376167   19.633940   22.216257 C.3        1 MOL1        -0.1880
      11    H5      18.650506   20.697609   22.200236 H          1 MOL1         0.0742
      12    H6      17.285201   19.605495   22.090041 H          1 MOL1         0.0742
      13    C5      19.004148   18.904366   21.002243 C.3        1 MOL1        -0.1880
      14    H7      18.644027   17.866881   20.973823 H          1 MOL1         0.0742
      15    H8      18.635364   19.383140   20.084821 H          1 MOL1         0.0742
      16    C6      20.548171   18.910785   20.984476 C.3        1 MOL1        -0.1856
      17    H9      20.932833   18.324254   21.829196 H          1 MOL1         0.0742
      18    H10     20.917451   19.938418   21.105341 H          1 MOL1         0.0742
      19    C7      21.101885   18.317523   19.673269 C.3        1 MOL1        -0.2871
      20    H11     20.767251   17.280430   19.539806 H          1 MOL1         0.0754
      21    H12     22.199592   18.321259   19.680601 H          1 MOL1         0.0754
      22    H13     20.767071   18.900564   18.805353 H          1 MOL1         0.0754
@<TRIPOS>BOND
    1     1     2    1
    2     1     3    2
    3     1     4    1
    4     4     5    1
    5     4     6    1
    6     4     7    1
    7     7     8    1
    8     7     9    1
    9     7    10    1
   10    10    11    1
   11    10    12    1
   12    10    13    1
   13    13    14    1
   14    13    15    1
   15    13    16    1
   16    16    17    1
   17    16    18    1
   18    16    19    1
   19    19    20    1
   20    19    21    1
   21    19    22    1
@<TRIPOS>SUBSTRUCTURE
       1 MOL1            1 RESIDUE      1      MOL     
@<SCITEGIC>MOL_PROPERTY
VM2 Rank
SciTegic.value.IntegerValue
40

@<SCITEGIC>MOL_PROPERTY
Conf_Id
SciTegic.value.IntegerValue
125

@<SCITEGIC>MOL_PROPERTY
Probability
SciTegic.value.DoubleValue
0.05

@<SCITEGIC>MOL_PROPERTY
Sum Probability
SciTegic.value.DoubleValue
99.66

@<SCITEGIC>MOL_PROPERTY
Delta G
SciTegic.value.DoubleValue
3.883

@<SCITEGIC>MOL_PROPERTY
G
SciTegic.value.DoubleValue
-13.115

@<SCITEGIC>MOL_PROPERTY
E
SciTegic.value.DoubleValue
-33.060

@<SCITEGIC>MOL_PROPERTY
-TS
SciTegic.value.DoubleValue
19.946

@<SCITEGIC>MOL_PROPERTY
U+W
SciTegic.value.DoubleValue
-50.945

@<SCITEGIC>MOL_PROPERTY
U
SciTegic.value.DoubleValue
10.205

@<SCITEGIC>MOL_PROPERTY
W
SciTegic.value.DoubleValue
-61.150

@<SCITEGIC>MOL_PROPERTY
W(PB)
SciTegic.value.DoubleValue
-63.411

@<SCITEGIC>MOL_PROPERTY
W(SA)
SciTegic.value.DoubleValue
2.261

@<SCITEGIC>MOL_PROPERTY
Valence
SciTegic.value.DoubleValue
10.107

@<SCITEGIC>MOL_PROPERTY
Coulomb
SciTegic.value.DoubleValue
-0.699

@<SCITEGIC>MOL_PROPERTY
VdW
SciTegic.value.DoubleValue
0.797

@<SCITEGIC>MOL_PROPERTY
VdW6
SciTegic.value.DoubleValue
-8.211

@<SCITEGIC>MOL_PROPERTY
VdW12
SciTegic.value.DoubleValue
9.008

@<SCITEGIC>MOL_PROPERTY
Bond
SciTegic.value.DoubleValue
0.191

@<SCITEGIC>MOL_PROPERTY
Angle
SciTegic.value.DoubleValue
3.004

@<SCITEGIC>MOL_PROPERTY
Pdih
SciTegic.value.DoubleValue
6.911

@<SCITEGIC>MOL_PROPERTY
Idih
SciTegic.value.DoubleValue
0.001

@<SCITEGIC>MOL_PROPERTY
Tether
SciTegic.value.DoubleValue
0.000

@<TRIPOS>MOLECULE
guest-s21_vm2.mol2 : vm2 ligand conformer 41
          22          21           1
SMALL
USER_CHARGES
 
@<TRIPOS>ATOM
       1    C1      20.234402   19.196598   25.647750 C.2        1 MOL1         0.6145
       2    O1      20.937410   20.186758   25.605510 O.co2      1 MOL1        -0.6735
       3    O2      19.708108   18.787768   26.663871 O.co2      1 MOL1        -0.6735
       4    C2      19.982226   18.436465   24.350684 C.3        1 MOL1        -0.1985
       5    H1      19.873609   17.373581   24.597332 H          1 MOL1         0.0740
       6    H2      20.877722   18.528871   23.728316 H          1 MOL1         0.0740
       7    C3      18.722439   18.938102   23.596371 C.3        1 MOL1        -0.1882
       8    H3      17.856390   18.805038   24.259462 H          1 MOL1         0.0742
       9    H4      18.799025   20.017804   23.407276 H          1 MOL1         0.0742
      10    C4      18.454684   18.178899   22.272052 C.3        1 MOL1        -0.1880
      11    H5      17.367508   18.080229   22.148520 H          1 MOL1         0.0742
      12    H6      18.841797   17.152770   22.336165 H          1 MOL1         0.0742
      13    C5      19.005633   18.876894   21.003305 C.3        1 MOL1        -0.1880
      14    H7      18.694206   18.292632   20.126641 H          1 MOL1         0.0742
      15    H8      18.536249   19.864468   20.897241 H          1 MOL1         0.0742
      16    C6      20.541467   19.035063   20.979716 C.3        1 MOL1        -0.1856
      17    H9      21.018519   18.065312   21.177222 H          1 MOL1         0.0742
      18    H10     20.857400   19.722346   21.775558 H          1 MOL1         0.0742
      19    C7      21.033631   19.582451   19.624740 C.3        1 MOL1        -0.2871
      20    H11     20.766999   18.902196   18.805305 H          1 MOL1         0.0754
      21    H12     22.125342   19.697276   19.627816 H          1 MOL1         0.0754
      22    H13     20.590034   20.564326   19.413795 H          1 MOL1         0.0754
@<TRIPOS>BOND
    1     1     2    1
    2     1     3    2
    3     1     4    1
    4     4     5    1
    5     4     6    1
    6     4     7    1
    7     7     8    1
    8     7     9    1
    9     7    10    1
   10    10    11    1
   11    10    12    1
   12    10    13    1
   13    13    14    1
   14    13    15    1
   15    13    16    1
   16    16    17    1
   17    16    18    1
   18    16    19    1
   19    19    20    1
   20    19    21    1
   21    19    22    1
@<TRIPOS>SUBSTRUCTURE
       1 MOL1            1 RESIDUE      1      MOL     
@<SCITEGIC>MOL_PROPERTY
VM2 Rank
SciTegic.value.IntegerValue
41

@<SCITEGIC>MOL_PROPERTY
Conf_Id
SciTegic.value.IntegerValue
68

@<SCITEGIC>MOL_PROPERTY
Probability
SciTegic.value.DoubleValue
0.05

@<SCITEGIC>MOL_PROPERTY
Sum Probability
SciTegic.value.DoubleValue
99.71

@<SCITEGIC>MOL_PROPERTY
Delta G
SciTegic.value.DoubleValue
3.908

@<SCITEGIC>MOL_PROPERTY
G
SciTegic.value.DoubleValue
-13.090

@<SCITEGIC>MOL_PROPERTY
E
SciTegic.value.DoubleValue
-33.035

@<SCITEGIC>MOL_PROPERTY
-TS
SciTegic.value.DoubleValue
19.946

@<SCITEGIC>MOL_PROPERTY
U+W
SciTegic.value.DoubleValue
-50.920

@<SCITEGIC>MOL_PROPERTY
U
SciTegic.value.DoubleValue
10.205

@<SCITEGIC>MOL_PROPERTY
W
SciTegic.value.DoubleValue
-61.125

@<SCITEGIC>MOL_PROPERTY
W(PB)
SciTegic.value.DoubleValue
-63.384

@<SCITEGIC>MOL_PROPERTY
W(SA)
SciTegic.value.DoubleValue
2.259

@<SCITEGIC>MOL_PROPERTY
Valence
SciTegic.value.DoubleValue
10.107

@<SCITEGIC>MOL_PROPERTY
Coulomb
SciTegic.value.DoubleValue
-0.699

@<SCITEGIC>MOL_PROPERTY
VdW
SciTegic.value.DoubleValue
0.797

@<SCITEGIC>MOL_PROPERTY
VdW6
SciTegic.value.DoubleValue
-8.212

@<SCITEGIC>MOL_PROPERTY
VdW12
SciTegic.value.DoubleValue
9.009

@<SCITEGIC>MOL_PROPERTY
Bond
SciTegic.value.DoubleValue
0.191

@<SCITEGIC>MOL_PROPERTY
Angle
SciTegic.value.DoubleValue
3.004

@<SCITEGIC>MOL_PROPERTY
Pdih
SciTegic.value.DoubleValue
6.911

@<SCITEGIC>MOL_PROPERTY
Idih
SciTegic.value.DoubleValue
0.001

@<SCITEGIC>MOL_PROPERTY
Tether
SciTegic.value.DoubleValue
0.000

@<TRIPOS>MOLECULE
guest-s21_vm2.mol2 : vm2 ligand conformer 42
          22          21           1
SMALL
USER_CHARGES
 
@<TRIPOS>ATOM
       1    C1      19.647124   19.369147   25.771470 C.2        1 MOL1         0.6145
       2    O1      20.474866   20.120982   26.246975 O.co2      1 MOL1        -0.6735
       3    O2      18.464331   19.409494   26.046897 O.co2      1 MOL1        -0.6735
       4    C2      20.116045   18.328495   24.760770 C.3        1 MOL1        -0.1985
       5    H1      19.475232   17.444073   24.859687 H          1 MOL1         0.0740
       6    H2      21.133758   18.024023   25.033019 H          1 MOL1         0.0740
       7    C3      20.085081   18.849818   23.302860 C.3        1 MOL1        -0.1882
       8    H3      19.060962   19.163809   23.062514 H          1 MOL1         0.0742
       9    H4      20.725800   19.738572   23.220612 H          1 MOL1         0.0742
      10    C4      20.552056   17.773388   22.297844 C.3        1 MOL1        -0.1880
      11    H5      19.852362   16.926688   22.318414 H          1 MOL1         0.0742
      12    H6      21.523715   17.378223   22.624365 H          1 MOL1         0.0742
      13    C5      20.700530   18.283104   20.842317 C.3        1 MOL1        -0.1880
      14    H7      21.467083   19.068604   20.794276 H          1 MOL1         0.0742
      15    H8      21.088580   17.450764   20.239391 H          1 MOL1         0.0742
      16    C6      19.384809   18.777054   20.190571 C.3        1 MOL1        -0.1856
      17    H9      18.522604   18.258457   20.632050 H          1 MOL1         0.0742
      18    H10     19.395062   18.501332   19.127004 H          1 MOL1         0.0742
      19    C7      19.195160   20.307518   20.284297 C.3        1 MOL1        -0.2871
      20    H11     19.156629   20.651628   21.324017 H          1 MOL1         0.0754
      21    H12     18.258830   20.608657   19.797040 H          1 MOL1         0.0754
      22    H13     20.018184   20.834008   19.783788 H          1 MOL1         0.0754
@<TRIPOS>BOND
    1     1     2    1
    2     1     3    2
    3     1     4    1
    4     4     5    1
    5     4     6    1
    6     4     7    1
    7     7     8    1
    8     7     9    1
    9     7    10    1
   10    10    11    1
   11    10    12    1
   12    10    13    1
   13    13    14    1
   14    13    15    1
   15    13    16    1
   16    16    17    1
   17    16    18    1
   18    16    19    1
   19    19    20    1
   20    19    21    1
   21    19    22    1
@<TRIPOS>SUBSTRUCTURE
       1 MOL1            1 RESIDUE      1      MOL     
@<SCITEGIC>MOL_PROPERTY
VM2 Rank
SciTegic.value.IntegerValue
42

@<SCITEGIC>MOL_PROPERTY
Conf_Id
SciTegic.value.IntegerValue
343

@<SCITEGIC>MOL_PROPERTY
Probability
SciTegic.value.DoubleValue
0.05

@<SCITEGIC>MOL_PROPERTY
Sum Probability
SciTegic.value.DoubleValue
99.76

@<SCITEGIC>MOL_PROPERTY
Delta G
SciTegic.value.DoubleValue
3.936

@<SCITEGIC>MOL_PROPERTY
G
SciTegic.value.DoubleValue
-13.062

@<SCITEGIC>MOL_PROPERTY
E
SciTegic.value.DoubleValue
-32.971

@<SCITEGIC>MOL_PROPERTY
-TS
SciTegic.value.DoubleValue
19.909

@<SCITEGIC>MOL_PROPERTY
U+W
SciTegic.value.DoubleValue
-50.856

@<SCITEGIC>MOL_PROPERTY
U
SciTegic.value.DoubleValue
10.453

@<SCITEGIC>MOL_PROPERTY
W
SciTegic.value.DoubleValue
-61.309

@<SCITEGIC>MOL_PROPERTY
W(PB)
SciTegic.value.DoubleValue
-63.578

@<SCITEGIC>MOL_PROPERTY
W(SA)
SciTegic.value.DoubleValue
2.270

@<SCITEGIC>MOL_PROPERTY
Valence
SciTegic.value.DoubleValue
10.097

@<SCITEGIC>MOL_PROPERTY
Coulomb
SciTegic.value.DoubleValue
-0.504

@<SCITEGIC>MOL_PROPERTY
VdW
SciTegic.value.DoubleValue
0.859

@<SCITEGIC>MOL_PROPERTY
VdW6
SciTegic.value.DoubleValue
-8.064

@<SCITEGIC>MOL_PROPERTY
VdW12
SciTegic.value.DoubleValue
8.924

@<SCITEGIC>MOL_PROPERTY
Bond
SciTegic.value.DoubleValue
0.175

@<SCITEGIC>MOL_PROPERTY
Angle
SciTegic.value.DoubleValue
2.998

@<SCITEGIC>MOL_PROPERTY
Pdih
SciTegic.value.DoubleValue
6.923

@<SCITEGIC>MOL_PROPERTY
Idih
SciTegic.value.DoubleValue
0.000

@<SCITEGIC>MOL_PROPERTY
Tether
SciTegic.value.DoubleValue
0.000

@<TRIPOS>MOLECULE
guest-s21_vm2.mol2 : vm2 ligand conformer 43
          22          21           1
SMALL
USER_CHARGES
 
@<TRIPOS>ATOM
       1    C1      19.676156   18.848920   25.791458 C.2        1 MOL1         0.6145
       2    O1      18.504001   18.698378   26.074084 O.co2      1 MOL1        -0.6735
       3    O2      20.580321   18.232437   26.319616 O.co2      1 MOL1        -0.6735
       4    C2      20.030797   19.854959   24.702203 C.3        1 MOL1        -0.1985
       5    H1      21.007185   20.290583   24.946052 H          1 MOL1         0.0740
       6    H2      19.295228   20.667625   24.735988 H          1 MOL1         0.0740
       7    C3      20.064203   19.223560   23.288532 C.3        1 MOL1        -0.1882
       8    H3      20.800021   18.407804   23.271736 H          1 MOL1         0.0742
       9    H4      19.082341   18.780315   23.077205 H          1 MOL1         0.0742
      10    C4      20.413067   20.265246   22.202247 C.3        1 MOL1        -0.1880
      11    H5      21.333444   20.789620   22.493501 H          1 MOL1         0.0742
      12    H6      19.623614   21.028112   22.161050 H          1 MOL1         0.0742
      13    C5      20.623439   19.665481   20.789291 C.3        1 MOL1        -0.1880
      14    H7      20.919285   20.487253   20.122915 H          1 MOL1         0.0742
      15    H8      21.472643   18.968560   20.798149 H          1 MOL1         0.0742
      16    C6      19.373479   18.980215   20.182751 C.3        1 MOL1        -0.1856
      17    H9      19.357578   19.173391   19.101210 H          1 MOL1         0.0742
      18    H10     18.457153   19.432045   20.587028 H          1 MOL1         0.0742
      19    C7      19.354538   17.449804   20.393816 C.3        1 MOL1        -0.2871
      20    H11     20.233048   16.981296   19.931441 H          1 MOL1         0.0754
      21    H12     18.459511   17.010258   19.934964 H          1 MOL1         0.0754
      22    H13     19.350038   17.183913   21.456923 H          1 MOL1         0.0754
@<TRIPOS>BOND
    1     1     2    1
    2     1     3    2
    3     1     4    1
    4     4     5    1
    5     4     6    1
    6     4     7    1
    7     7     8    1
    8     7     9    1
    9     7    10    1
   10    10    11    1
   11    10    12    1
   12    10    13    1
   13    13    14    1
   14    13    15    1
   15    13    16    1
   16    16    17    1
   17    16    18    1
   18    16    19    1
   19    19    20    1
   20    19    21    1
   21    19    22    1
@<TRIPOS>SUBSTRUCTURE
       1 MOL1            1 RESIDUE      1      MOL     
@<SCITEGIC>MOL_PROPERTY
VM2 Rank
SciTegic.value.IntegerValue
43

@<SCITEGIC>MOL_PROPERTY
Conf_Id
SciTegic.value.IntegerValue
293

@<SCITEGIC>MOL_PROPERTY
Probability
SciTegic.value.DoubleValue
0.04

@<SCITEGIC>MOL_PROPERTY
Sum Probability
SciTegic.value.DoubleValue
99.80

@<SCITEGIC>MOL_PROPERTY
Delta G
SciTegic.value.DoubleValue
3.997

@<SCITEGIC>MOL_PROPERTY
G
SciTegic.value.DoubleValue
-13.001

@<SCITEGIC>MOL_PROPERTY
E
SciTegic.value.DoubleValue
-32.910

@<SCITEGIC>MOL_PROPERTY
-TS
SciTegic.value.DoubleValue
19.909

@<SCITEGIC>MOL_PROPERTY
U+W
SciTegic.value.DoubleValue
-50.795

@<SCITEGIC>MOL_PROPERTY
U
SciTegic.value.DoubleValue
10.452

@<SCITEGIC>MOL_PROPERTY
W
SciTegic.value.DoubleValue
-61.248

@<SCITEGIC>MOL_PROPERTY
W(PB)
SciTegic.value.DoubleValue
-63.525

@<SCITEGIC>MOL_PROPERTY
W(SA)
SciTegic.value.DoubleValue
2.278

@<SCITEGIC>MOL_PROPERTY
Valence
SciTegic.value.DoubleValue
10.097

@<SCITEGIC>MOL_PROPERTY
Coulomb
SciTegic.value.DoubleValue
-0.504

@<SCITEGIC>MOL_PROPERTY
VdW
SciTegic.value.DoubleValue
0.859

@<SCITEGIC>MOL_PROPERTY
VdW6
SciTegic.value.DoubleValue
-8.064

@<SCITEGIC>MOL_PROPERTY
VdW12
SciTegic.value.DoubleValue
8.923

@<SCITEGIC>MOL_PROPERTY
Bond
SciTegic.value.DoubleValue
0.175

@<SCITEGIC>MOL_PROPERTY
Angle
SciTegic.value.DoubleValue
2.998

@<SCITEGIC>MOL_PROPERTY
Pdih
SciTegic.value.DoubleValue
6.924

@<SCITEGIC>MOL_PROPERTY
Idih
SciTegic.value.DoubleValue
0.000

@<SCITEGIC>MOL_PROPERTY
Tether
SciTegic.value.DoubleValue
0.000

@<TRIPOS>MOLECULE
guest-s21_vm2.mol2 : vm2 ligand conformer 44
          22          21           1
SMALL
USER_CHARGES
 
@<TRIPOS>ATOM
       1    C1      20.018997   18.916515   25.835417 C.2        1 MOL1         0.6145
       2    O1      19.035059   18.992541   26.544378 O.co2      1 MOL1        -0.6735
       3    O2      20.937167   18.147066   26.038821 O.co2      1 MOL1        -0.6735
       4    C2      20.097418   19.824438   24.613184 C.3        1 MOL1        -0.1985
       5    H1      21.153152   20.056476   24.428211 H          1 MOL1         0.0740
       6    H2      19.595604   20.768463   24.857217 H          1 MOL1         0.0740
       7    C3      19.461546   19.190995   23.351269 C.3        1 MOL1        -0.1882
       8    H3      19.961123   18.238158   23.138624 H          1 MOL1         0.0742
       9    H4      18.408744   18.954237   23.558094 H          1 MOL1         0.0742
      10    C4      19.549446   20.135231   22.129002 C.3        1 MOL1        -0.1880
      11    H5      20.592880   20.424166   21.942846 H          1 MOL1         0.0742
      12    H6      19.013806   21.062604   22.374060 H          1 MOL1         0.0742
      13    C5      18.927298   19.534209   20.843098 C.3        1 MOL1        -0.1880
      14    H7      18.122214   18.832637   21.100983 H          1 MOL1         0.0742
      15    H8      18.445792   20.348310   20.284275 H          1 MOL1         0.0742
      16    C6      19.941700   18.853218   19.891332 C.3        1 MOL1        -0.1856
      17    H9      20.693908   19.586487   19.569260 H          1 MOL1         0.0742
      18    H10     19.410103   18.539277   18.982479 H          1 MOL1         0.0742
      19    C7      20.651370   17.624786   20.497500 C.3        1 MOL1        -0.2871
      20    H11     21.256612   17.116605   19.735790 H          1 MOL1         0.0754
      21    H12     19.923497   16.902574   20.889412 H          1 MOL1         0.0754
      22    H13     21.324902   17.919056   21.312006 H          1 MOL1         0.0754
@<TRIPOS>BOND
    1     1     2    1
    2     1     3    2
    3     1     4    1
    4     4     5    1
    5     4     6    1
    6     4     7    1
    7     7     8    1
    8     7     9    1
    9     7    10    1
   10    10    11    1
   11    10    12    1
   12    10    13    1
   13    13    14    1
   14    13    15    1
   15    13    16    1
   16    16    17    1
   17    16    18    1
   18    16    19    1
   19    19    20    1
   20    19    21    1
   21    19    22    1
@<TRIPOS>SUBSTRUCTURE
       1 MOL1            1 RESIDUE      1      MOL     
@<SCITEGIC>MOL_PROPERTY
VM2 Rank
SciTegic.value.IntegerValue
44

@<SCITEGIC>MOL_PROPERTY
Conf_Id
SciTegic.value.IntegerValue
75

@<SCITEGIC>MOL_PROPERTY
Probability
SciTegic.value.DoubleValue
0.04

@<SCITEGIC>MOL_PROPERTY
Sum Probability
SciTegic.value.DoubleValue
99.84

@<SCITEGIC>MOL_PROPERTY
Delta G
SciTegic.value.DoubleValue
4.048

@<SCITEGIC>MOL_PROPERTY
G
SciTegic.value.DoubleValue
-12.950

@<SCITEGIC>MOL_PROPERTY
E
SciTegic.value.DoubleValue
-32.858

@<SCITEGIC>MOL_PROPERTY
-TS
SciTegic.value.DoubleValue
19.908

@<SCITEGIC>MOL_PROPERTY
U+W
SciTegic.value.DoubleValue
-50.743

@<SCITEGIC>MOL_PROPERTY
U
SciTegic.value.DoubleValue
10.295

@<SCITEGIC>MOL_PROPERTY
W
SciTegic.value.DoubleValue
-61.038

@<SCITEGIC>MOL_PROPERTY
W(PB)
SciTegic.value.DoubleValue
-63.288

@<SCITEGIC>MOL_PROPERTY
W(SA)
SciTegic.value.DoubleValue
2.250

@<SCITEGIC>MOL_PROPERTY
Valence
SciTegic.value.DoubleValue
10.075

@<SCITEGIC>MOL_PROPERTY
Coulomb
SciTegic.value.DoubleValue
-0.616

@<SCITEGIC>MOL_PROPERTY
VdW
SciTegic.value.DoubleValue
0.835

@<SCITEGIC>MOL_PROPERTY
VdW6
SciTegic.value.DoubleValue
-8.072

@<SCITEGIC>MOL_PROPERTY
VdW12
SciTegic.value.DoubleValue
8.907

@<SCITEGIC>MOL_PROPERTY
Bond
SciTegic.value.DoubleValue
0.176

@<SCITEGIC>MOL_PROPERTY
Angle
SciTegic.value.DoubleValue
2.976

@<SCITEGIC>MOL_PROPERTY
Pdih
SciTegic.value.DoubleValue
6.922

@<SCITEGIC>MOL_PROPERTY
Idih
SciTegic.value.DoubleValue
0.000

@<SCITEGIC>MOL_PROPERTY
Tether
SciTegic.value.DoubleValue
0.000

@<TRIPOS>MOLECULE
guest-s21_vm2.mol2 : vm2 ligand conformer 45
          22          21           1
SMALL
USER_CHARGES
 
@<TRIPOS>ATOM
       1    C1      19.996076   19.342873   25.819083 C.2        1 MOL1         0.6145
       2    O1      20.825128   20.220116   25.959004 O.co2      1 MOL1        -0.6735
       3    O2      19.023448   19.215539   26.536246 O.co2      1 MOL1        -0.6735
       4    C2      20.176515   18.358063   24.669337 C.3        1 MOL1        -0.1985
       5    H1      19.778028   17.386974   24.986747 H          1 MOL1         0.0740
       6    H2      21.251806   18.227345   24.498190 H          1 MOL1         0.0740
       7    C3      19.481401   18.821444   23.365457 C.3        1 MOL1        -0.1882
       8    H3      18.408460   18.959023   23.558054 H          1 MOL1         0.0742
       9    H4      19.876741   19.803332   23.078581 H          1 MOL1         0.0742
      10    C4      19.674945   17.801534   22.218477 C.3        1 MOL1        -0.1880
      11    H5      19.240773   16.843531   22.535822 H          1 MOL1         0.0742
      12    H6      20.744080   17.612709   22.050592 H          1 MOL1         0.0742
      13    C5      18.997218   18.232530   20.893044 C.3        1 MOL1        -0.1880
      14    H7      18.607866   17.331282   20.400046 H          1 MOL1         0.0742
      15    H8      18.120639   18.861547   21.099964 H          1 MOL1         0.0742
      16    C6      19.936738   18.943485   19.887826 C.3        1 MOL1        -0.1856
      17    H9      19.378236   19.128503   18.959918 H          1 MOL1         0.0742
      18    H10     20.764334   18.272442   19.619470 H          1 MOL1         0.0742
      19    C7      20.508533   20.283415   20.395525 C.3        1 MOL1        -0.2871
      20    H11     21.206338   20.125878   21.227338 H          1 MOL1         0.0754
      21    H12     19.706026   20.951467   20.734161 H          1 MOL1         0.0754
      22    H13     21.059076   20.793750   19.594757 H          1 MOL1         0.0754
@<TRIPOS>BOND
    1     1     2    1
    2     1     3    2
    3     1     4    1
    4     4     5    1
    5     4     6    1
    6     4     7    1
    7     7     8    1
    8     7     9    1
    9     7    10    1
   10    10    11    1
   11    10    12    1
   12    10    13    1
   13    13    14    1
   14    13    15    1
   15    13    16    1
   16    16    17    1
   17    16    18    1
   18    16    19    1
   19    19    20    1
   20    19    21    1
   21    19    22    1
@<TRIPOS>SUBSTRUCTURE
       1 MOL1            1 RESIDUE      1      MOL     
@<SCITEGIC>MOL_PROPERTY
VM2 Rank
SciTegic.value.IntegerValue
45

@<SCITEGIC>MOL_PROPERTY
Conf_Id
SciTegic.value.IntegerValue
133

@<SCITEGIC>MOL_PROPERTY
Probability
SciTegic.value.DoubleValue
0.04

@<SCITEGIC>MOL_PROPERTY
Sum Probability
SciTegic.value.DoubleValue
99.87

@<SCITEGIC>MOL_PROPERTY
Delta G
SciTegic.value.DoubleValue
4.094

@<SCITEGIC>MOL_PROPERTY
G
SciTegic.value.DoubleValue
-12.904

@<SCITEGIC>MOL_PROPERTY
E
SciTegic.value.DoubleValue
-32.812

@<SCITEGIC>MOL_PROPERTY
-TS
SciTegic.value.DoubleValue
19.908

@<SCITEGIC>MOL_PROPERTY
U+W
SciTegic.value.DoubleValue
-50.697

@<SCITEGIC>MOL_PROPERTY
U
SciTegic.value.DoubleValue
10.295

@<SCITEGIC>MOL_PROPERTY
W
SciTegic.value.DoubleValue
-60.992

@<SCITEGIC>MOL_PROPERTY
W(PB)
SciTegic.value.DoubleValue
-63.271

@<SCITEGIC>MOL_PROPERTY
W(SA)
SciTegic.value.DoubleValue
2.279

@<SCITEGIC>MOL_PROPERTY
Valence
SciTegic.value.DoubleValue
10.075

@<SCITEGIC>MOL_PROPERTY
Coulomb
SciTegic.value.DoubleValue
-0.616

@<SCITEGIC>MOL_PROPERTY
VdW
SciTegic.value.DoubleValue
0.835

@<SCITEGIC>MOL_PROPERTY
VdW6
SciTegic.value.DoubleValue
-8.072

@<SCITEGIC>MOL_PROPERTY
VdW12
SciTegic.value.DoubleValue
8.907

@<SCITEGIC>MOL_PROPERTY
Bond
SciTegic.value.DoubleValue
0.176

@<SCITEGIC>MOL_PROPERTY
Angle
SciTegic.value.DoubleValue
2.976

@<SCITEGIC>MOL_PROPERTY
Pdih
SciTegic.value.DoubleValue
6.923

@<SCITEGIC>MOL_PROPERTY
Idih
SciTegic.value.DoubleValue
0.000

@<SCITEGIC>MOL_PROPERTY
Tether
SciTegic.value.DoubleValue
0.000

@<TRIPOS>MOLECULE
guest-s21_vm2.mol2 : vm2 ligand conformer 46
          22          21           1
SMALL
USER_CHARGES
 
@<TRIPOS>ATOM
       1    C1      19.945230   18.996308   25.499761 C.2        1 MOL1         0.6145
       2    O1      19.413281   19.756669   26.284812 O.co2      1 MOL1        -0.6735
       3    O2      19.919424   17.786675   25.614248 O.co2      1 MOL1        -0.6735
       4    C2      20.712881   19.596753   24.325333 C.3        1 MOL1        -0.1985
       5    H1      21.353699   18.820838   23.891174 H          1 MOL1         0.0740
       6    H2      21.383713   20.362760   24.731260 H          1 MOL1         0.0740
       7    C3      19.808119   20.231663   23.234240 C.3        1 MOL1        -0.1882
       8    H3      19.224589   21.043745   23.689257 H          1 MOL1         0.0742
       9    H4      20.439295   20.705056   22.471090 H          1 MOL1         0.0742
      10    C4      18.830396   19.237399   22.556510 C.3        1 MOL1        -0.1880
      11    H5      18.217547   19.783386   21.827418 H          1 MOL1         0.0742
      12    H6      18.126260   18.859642   23.310391 H          1 MOL1         0.0742
      13    C5      19.500614   18.025630   21.857340 C.3        1 MOL1        -0.1880
      14    H7      19.979383   17.390635   22.614781 H          1 MOL1         0.0742
      15    H8      18.715669   17.405019   21.404510 H          1 MOL1         0.0742
      16    C6      20.542253   18.385093   20.769349 C.3        1 MOL1        -0.1856
      17    H9      20.965850   17.453882   20.368972 H          1 MOL1         0.0742
      18    H10     21.381990   18.933414   21.216285 H          1 MOL1         0.0742
      19    C7      19.947801   19.202810   19.602407 C.3        1 MOL1        -0.2871
      20    H11     19.095158   18.679506   19.150624 H          1 MOL1         0.0754
      21    H12     20.701627   19.360518   18.820351 H          1 MOL1         0.0754
      22    H13     19.606864   20.189495   19.940263 H          1 MOL1         0.0754
@<TRIPOS>BOND
    1     1     2    1
    2     1     3    2
    3     1     4    1
    4     4     5    1
    5     4     6    1
    6     4     7    1
    7     7     8    1
    8     7     9    1
    9     7    10    1
   10    10    11    1
   11    10    12    1
   12    10    13    1
   13    13    14    1
   14    13    15    1
   15    13    16    1
   16    16    17    1
   17    16    18    1
   18    16    19    1
   19    19    20    1
   20    19    21    1
   21    19    22    1
@<TRIPOS>SUBSTRUCTURE
       1 MOL1            1 RESIDUE      1      MOL     
@<SCITEGIC>MOL_PROPERTY
VM2 Rank
SciTegic.value.IntegerValue
46

@<SCITEGIC>MOL_PROPERTY
Conf_Id
SciTegic.value.IntegerValue
314

@<SCITEGIC>MOL_PROPERTY
Probability
SciTegic.value.DoubleValue
0.02

@<SCITEGIC>MOL_PROPERTY
Sum Probability
SciTegic.value.DoubleValue
99.89

@<SCITEGIC>MOL_PROPERTY
Delta G
SciTegic.value.DoubleValue
4.561

@<SCITEGIC>MOL_PROPERTY
G
SciTegic.value.DoubleValue
-12.437

@<SCITEGIC>MOL_PROPERTY
E
SciTegic.value.DoubleValue
-33.139

@<SCITEGIC>MOL_PROPERTY
-TS
SciTegic.value.DoubleValue
20.703

@<SCITEGIC>MOL_PROPERTY
U+W
SciTegic.value.DoubleValue
-51.024

@<SCITEGIC>MOL_PROPERTY
U
SciTegic.value.DoubleValue
10.565

@<SCITEGIC>MOL_PROPERTY
W
SciTegic.value.DoubleValue
-61.590

@<SCITEGIC>MOL_PROPERTY
W(PB)
SciTegic.value.DoubleValue
-63.775

@<SCITEGIC>MOL_PROPERTY
W(SA)
SciTegic.value.DoubleValue
2.185

@<SCITEGIC>MOL_PROPERTY
Valence
SciTegic.value.DoubleValue
8.743

@<SCITEGIC>MOL_PROPERTY
Coulomb
SciTegic.value.DoubleValue
1.383

@<SCITEGIC>MOL_PROPERTY
VdW
SciTegic.value.DoubleValue
0.439

@<SCITEGIC>MOL_PROPERTY
VdW6
SciTegic.value.DoubleValue
-10.217

@<SCITEGIC>MOL_PROPERTY
VdW12
SciTegic.value.DoubleValue
10.656

@<SCITEGIC>MOL_PROPERTY
Bond
SciTegic.value.DoubleValue
0.248

@<SCITEGIC>MOL_PROPERTY
Angle
SciTegic.value.DoubleValue
3.453

@<SCITEGIC>MOL_PROPERTY
Pdih
SciTegic.value.DoubleValue
5.041

@<SCITEGIC>MOL_PROPERTY
Idih
SciTegic.value.DoubleValue
0.001

@<SCITEGIC>MOL_PROPERTY
Tether
SciTegic.value.DoubleValue
0.000

@<TRIPOS>MOLECULE
guest-s21_vm2.mol2 : vm2 ligand conformer 47
          22          21           1
SMALL
USER_CHARGES
 
@<TRIPOS>ATOM
       1    C1      19.756385   18.956621   25.499254 C.2        1 MOL1         0.6145
       2    O1      19.933436   19.865873   26.286234 O.co2      1 MOL1        -0.6735
       3    O2      20.266440   17.859601   25.614899 O.co2      1 MOL1        -0.6735
       4    C2      18.818073   19.198788   24.320259 C.3        1 MOL1        -0.1985
       5    H1      17.893676   19.629730   24.721925 H          1 MOL1         0.0740
       6    H2      18.545801   18.231102   23.883638 H          1 MOL1         0.0740
       7    C3      19.396522   20.145246   23.233149 C.3        1 MOL1        -0.1882
       8    H3      18.632151   20.325501   22.466253 H          1 MOL1         0.0742
       9    H4      19.601647   21.122989   23.690280 H          1 MOL1         0.0742
      10    C4      20.695125   19.629131   22.561527 C.3        1 MOL1        -0.1880
      11    H5      21.487868   19.565841   23.319418 H          1 MOL1         0.0742
      12    H6      21.040217   20.376321   21.834974 H          1 MOL1         0.0742
      13    C5      20.572731   18.250839   21.860281 C.3        1 MOL1        -0.1880
      14    H7      21.543356   17.998993   21.412158 H          1 MOL1         0.0742
      15    H8      20.386057   17.476083   22.615968 H          1 MOL1         0.0742
      16    C6      19.480084   18.161931   20.766587 C.3        1 MOL1        -0.1856
      17    H9      18.488419   18.325532   21.208630 H          1 MOL1         0.0742
      18    H10     19.469052   17.139412   20.365062 H          1 MOL1         0.0742
      19    C7      19.701205   19.150969   19.601811 C.3        1 MOL1        -0.2871
      20    H11     18.951622   18.992872   18.815766 H          1 MOL1         0.0754
      21    H12     20.694627   19.015458   19.154928 H          1 MOL1         0.0754
      22    H13     19.614586   20.191077   19.940344 H          1 MOL1         0.0754
@<TRIPOS>BOND
    1     1     2    1
    2     1     3    2
    3     1     4    1
    4     4     5    1
    5     4     6    1
    6     4     7    1
    7     7     8    1
    8     7     9    1
    9     7    10    1
   10    10    11    1
   11    10    12    1
   12    10    13    1
   13    13    14    1
   14    13    15    1
   15    13    16    1
   16    16    17    1
   17    16    18    1
   18    16    19    1
   19    19    20    1
   20    19    21    1
   21    19    22    1
@<TRIPOS>SUBSTRUCTURE
       1 MOL1            1 RESIDUE      1      MOL     
@<SCITEGIC>MOL_PROPERTY
VM2 Rank
SciTegic.value.IntegerValue
47

@<SCITEGIC>MOL_PROPERTY
Conf_Id
SciTegic.value.IntegerValue
191

@<SCITEGIC>MOL_PROPERTY
Probability
SciTegic.value.DoubleValue
0.02

@<SCITEGIC>MOL_PROPERTY
Sum Probability
SciTegic.value.DoubleValue
99.90

@<SCITEGIC>MOL_PROPERTY
Delta G
SciTegic.value.DoubleValue
4.574

@<SCITEGIC>MOL_PROPERTY
G
SciTegic.value.DoubleValue
-12.424

@<SCITEGIC>MOL_PROPERTY
E
SciTegic.value.DoubleValue
-33.128

@<SCITEGIC>MOL_PROPERTY
-TS
SciTegic.value.DoubleValue
20.703

@<SCITEGIC>MOL_PROPERTY
U+W
SciTegic.value.DoubleValue
-51.012

@<SCITEGIC>MOL_PROPERTY
U
SciTegic.value.DoubleValue
10.566

@<SCITEGIC>MOL_PROPERTY
W
SciTegic.value.DoubleValue
-61.579

@<SCITEGIC>MOL_PROPERTY
W(PB)
SciTegic.value.DoubleValue
-63.766

@<SCITEGIC>MOL_PROPERTY
W(SA)
SciTegic.value.DoubleValue
2.187

@<SCITEGIC>MOL_PROPERTY
Valence
SciTegic.value.DoubleValue
8.743

@<SCITEGIC>MOL_PROPERTY
Coulomb
SciTegic.value.DoubleValue
1.385

@<SCITEGIC>MOL_PROPERTY
VdW
SciTegic.value.DoubleValue
0.439

@<SCITEGIC>MOL_PROPERTY
VdW6
SciTegic.value.DoubleValue
-10.218

@<SCITEGIC>MOL_PROPERTY
VdW12
SciTegic.value.DoubleValue
10.657

@<SCITEGIC>MOL_PROPERTY
Bond
SciTegic.value.DoubleValue
0.248

@<SCITEGIC>MOL_PROPERTY
Angle
SciTegic.value.DoubleValue
3.454

@<SCITEGIC>MOL_PROPERTY
Pdih
SciTegic.value.DoubleValue
5.040

@<SCITEGIC>MOL_PROPERTY
Idih
SciTegic.value.DoubleValue
0.001

@<SCITEGIC>MOL_PROPERTY
Tether
SciTegic.value.DoubleValue
0.000

@<TRIPOS>MOLECULE
guest-s21_vm2.mol2 : vm2 ligand conformer 48
          22          21           1
SMALL
USER_CHARGES
 
@<TRIPOS>ATOM
       1    C1      20.122268   18.974764   25.394715 C.2        1 MOL1         0.6145
       2    O1      20.717916   19.999134   25.665496 O.co2      1 MOL1        -0.6735
       3    O2      20.594853   17.865218   25.545332 O.co2      1 MOL1        -0.6735
       4    C2      18.680173   19.082554   24.902675 C.3        1 MOL1        -0.1985
       5    H1      18.109310   19.536224   25.721113 H          1 MOL1         0.0740
       6    H2      18.275222   18.073369   24.759906 H          1 MOL1         0.0740
       7    C3      18.478981   19.931255   23.615495 C.3        1 MOL1        -0.1882
       8    H3      17.429109   20.252470   23.583687 H          1 MOL1         0.0742
       9    H4      19.074466   20.852786   23.676513 H          1 MOL1         0.0742
      10    C4      18.783358   19.188800   22.290376 C.3        1 MOL1        -0.1880
      11    H5      18.442253   19.826743   21.465455 H          1 MOL1         0.0742
      12    H6      18.186011   18.268572   22.236840 H          1 MOL1         0.0742
      13    C5      20.280003   18.850016   22.087401 C.3        1 MOL1        -0.1880
      14    H7      20.886921   19.758725   22.200005 H          1 MOL1         0.0742
      15    H8      20.604634   18.158044   22.873966 H          1 MOL1         0.0742
      16    C6      20.581935   18.189009   20.721964 C.3        1 MOL1        -0.1856
      17    H9      19.957576   17.293642   20.596521 H          1 MOL1         0.0742
      18    H10     21.624372   17.841809   20.723982 H          1 MOL1         0.0742
      19    C7      20.380514   19.138251   19.520545 C.3        1 MOL1        -0.2871
      20    H11     19.326591   19.417508   19.400253 H          1 MOL1         0.0754
      21    H12     20.702406   18.652443   18.590343 H          1 MOL1         0.0754
      22    H13     20.969058   20.056835   19.642739 H          1 MOL1         0.0754
@<TRIPOS>BOND
    1     1     2    1
    2     1     3    2
    3     1     4    1
    4     4     5    1
    5     4     6    1
    6     4     7    1
    7     7     8    1
    8     7     9    1
    9     7    10    1
   10    10    11    1
   11    10    12    1
   12    10    13    1
   13    13    14    1
   14    13    15    1
   15    13    16    1
   16    16    17    1
   17    16    18    1
   18    16    19    1
   19    19    20    1
   20    19    21    1
   21    19    22    1
@<TRIPOS>SUBSTRUCTURE
       1 MOL1            1 RESIDUE      1      MOL     
@<SCITEGIC>MOL_PROPERTY
VM2 Rank
SciTegic.value.IntegerValue
48

@<SCITEGIC>MOL_PROPERTY
Conf_Id
SciTegic.value.IntegerValue
115

@<SCITEGIC>MOL_PROPERTY
Probability
SciTegic.value.DoubleValue
0.01

@<SCITEGIC>MOL_PROPERTY
Sum Probability
SciTegic.value.DoubleValue
99.92

@<SCITEGIC>MOL_PROPERTY
Delta G
SciTegic.value.DoubleValue
4.678

@<SCITEGIC>MOL_PROPERTY
G
SciTegic.value.DoubleValue
-12.320

@<SCITEGIC>MOL_PROPERTY
E
SciTegic.value.DoubleValue
-32.512

@<SCITEGIC>MOL_PROPERTY
-TS
SciTegic.value.DoubleValue
20.192

@<SCITEGIC>MOL_PROPERTY
U+W
SciTegic.value.DoubleValue
-50.397

@<SCITEGIC>MOL_PROPERTY
U
SciTegic.value.DoubleValue
11.648

@<SCITEGIC>MOL_PROPERTY
W
SciTegic.value.DoubleValue
-62.045

@<SCITEGIC>MOL_PROPERTY
W(PB)
SciTegic.value.DoubleValue
-64.292

@<SCITEGIC>MOL_PROPERTY
W(SA)
SciTegic.value.DoubleValue
2.247

@<SCITEGIC>MOL_PROPERTY
Valence
SciTegic.value.DoubleValue
9.667

@<SCITEGIC>MOL_PROPERTY
Coulomb
SciTegic.value.DoubleValue
1.202

@<SCITEGIC>MOL_PROPERTY
VdW
SciTegic.value.DoubleValue
0.779

@<SCITEGIC>MOL_PROPERTY
VdW6
SciTegic.value.DoubleValue
-9.278

@<SCITEGIC>MOL_PROPERTY
VdW12
SciTegic.value.DoubleValue
10.057

@<SCITEGIC>MOL_PROPERTY
Bond
SciTegic.value.DoubleValue
0.225

@<SCITEGIC>MOL_PROPERTY
Angle
SciTegic.value.DoubleValue
3.506

@<SCITEGIC>MOL_PROPERTY
Pdih
SciTegic.value.DoubleValue
5.930

@<SCITEGIC>MOL_PROPERTY
Idih
SciTegic.value.DoubleValue
0.006

@<SCITEGIC>MOL_PROPERTY
Tether
SciTegic.value.DoubleValue
0.000

@<TRIPOS>MOLECULE
guest-s21_vm2.mol2 : vm2 ligand conformer 49
          22          21           1
SMALL
USER_CHARGES
 
@<TRIPOS>ATOM
       1    C1      20.177212   18.938123   25.300854 C.2        1 MOL1         0.6145
       2    O1      20.459837   20.036794   25.737433 O.co2      1 MOL1        -0.6735
       3    O2      20.959294   18.008392   25.268961 O.co2      1 MOL1        -0.6735
       4    C2      18.744773   18.690775   24.831340 C.3        1 MOL1        -0.1985
       5    H1      18.105150   18.815897   25.712657 H          1 MOL1         0.0740
       6    H2      18.647957   17.643849   24.519198 H          1 MOL1         0.0740
       7    C3      18.243511   19.636655   23.703920 C.3        1 MOL1        -0.1882
       8    H3      17.145392   19.614204   23.705024 H          1 MOL1         0.0742
       9    H4      18.524684   20.673973   23.932894 H          1 MOL1         0.0742
      10    C4      18.722048   19.258321   22.280245 C.3        1 MOL1        -0.1880
      11    H5      18.194711   19.898030   21.559581 H          1 MOL1         0.0742
      12    H6      18.420148   18.226321   22.058082 H          1 MOL1         0.0742
      13    C5      20.246265   19.419011   22.066387 C.3        1 MOL1        -0.1880
      14    H7      20.563425   20.397390   22.452559 H          1 MOL1         0.0742
      15    H8      20.788135   18.662053   22.647668 H          1 MOL1         0.0742
      16    C6      20.669468   19.311330   20.582902 C.3        1 MOL1        -0.1856
      17    H9      21.743596   19.529159   20.505728 H          1 MOL1         0.0742
      18    H10     20.153502   20.081130   19.992658 H          1 MOL1         0.0742
      19    C7      20.397592   17.919599   19.971959 C.3        1 MOL1        -0.2871
      20    H11     19.322450   17.704633   19.929861 H          1 MOL1         0.0754
      21    H12     20.883787   17.130923   20.560875 H          1 MOL1         0.0754
      22    H13     20.788200   17.866602   18.947522 H          1 MOL1         0.0754
@<TRIPOS>BOND
    1     1     2    1
    2     1     3    2
    3     1     4    1
    4     4     5    1
    5     4     6    1
    6     4     7    1
    7     7     8    1
    8     7     9    1
    9     7    10    1
   10    10    11    1
   11    10    12    1
   12    10    13    1
   13    13    14    1
   14    13    15    1
   15    13    16    1
   16    16    17    1
   17    16    18    1
   18    16    19    1
   19    19    20    1
   20    19    21    1
   21    19    22    1
@<TRIPOS>SUBSTRUCTURE
       1 MOL1            1 RESIDUE      1      MOL     
@<SCITEGIC>MOL_PROPERTY
VM2 Rank
SciTegic.value.IntegerValue
49

@<SCITEGIC>MOL_PROPERTY
Conf_Id
SciTegic.value.IntegerValue
52

@<SCITEGIC>MOL_PROPERTY
Probability
SciTegic.value.DoubleValue
0.01

@<SCITEGIC>MOL_PROPERTY
Sum Probability
SciTegic.value.DoubleValue
99.93

@<SCITEGIC>MOL_PROPERTY
Delta G
SciTegic.value.DoubleValue
4.683

@<SCITEGIC>MOL_PROPERTY
G
SciTegic.value.DoubleValue
-12.315

@<SCITEGIC>MOL_PROPERTY
E
SciTegic.value.DoubleValue
-32.675

@<SCITEGIC>MOL_PROPERTY
-TS
SciTegic.value.DoubleValue
20.361

@<SCITEGIC>MOL_PROPERTY
U+W
SciTegic.value.DoubleValue
-50.560

@<SCITEGIC>MOL_PROPERTY
U
SciTegic.value.DoubleValue
11.686

@<SCITEGIC>MOL_PROPERTY
W
SciTegic.value.DoubleValue
-62.247

@<SCITEGIC>MOL_PROPERTY
W(PB)
SciTegic.value.DoubleValue
-64.461

@<SCITEGIC>MOL_PROPERTY
W(SA)
SciTegic.value.DoubleValue
2.214

@<SCITEGIC>MOL_PROPERTY
Valence
SciTegic.value.DoubleValue
9.469

@<SCITEGIC>MOL_PROPERTY
Coulomb
SciTegic.value.DoubleValue
1.563

@<SCITEGIC>MOL_PROPERTY
VdW
SciTegic.value.DoubleValue
0.654

@<SCITEGIC>MOL_PROPERTY
VdW6
SciTegic.value.DoubleValue
-9.495

@<SCITEGIC>MOL_PROPERTY
VdW12
SciTegic.value.DoubleValue
10.149

@<SCITEGIC>MOL_PROPERTY
Bond
SciTegic.value.DoubleValue
0.216

@<SCITEGIC>MOL_PROPERTY
Angle
SciTegic.value.DoubleValue
3.352

@<SCITEGIC>MOL_PROPERTY
Pdih
SciTegic.value.DoubleValue
5.895

@<SCITEGIC>MOL_PROPERTY
Idih
SciTegic.value.DoubleValue
0.007

@<SCITEGIC>MOL_PROPERTY
Tether
SciTegic.value.DoubleValue
0.000

@<TRIPOS>MOLECULE
guest-s21_vm2.mol2 : vm2 ligand conformer 50
          22          21           1
SMALL
USER_CHARGES
 
@<TRIPOS>ATOM
       1    C1      20.157832   19.297724   25.287008 C.2        1 MOL1         0.6145
       2    O1      20.835465   20.301040   25.180992 O.co2      1 MOL1        -0.6735
       3    O2      20.555247   18.272383   25.804975 O.co2      1 MOL1        -0.6735
       4    C2      18.709008   19.353061   24.806016 C.3        1 MOL1        -0.1985
       5    H1      18.501418   20.356628   24.415354 H          1 MOL1         0.0740
       6    H2      18.082999   19.227466   25.696987 H          1 MOL1         0.0740
       7    C3      18.316927   18.275542   23.756135 C.3        1 MOL1        -0.1882
       8    H3      18.706988   17.294957   24.062434 H          1 MOL1         0.0742
       9    H4      17.222758   18.179896   23.760051 H          1 MOL1         0.0742
      10    C4      18.757890   18.593352   22.305778 C.3        1 MOL1        -0.1880
      11    H5      18.347894   19.567026   22.006805 H          1 MOL1         0.0742
      12    H6      18.305184   17.847657   21.638197 H          1 MOL1         0.0742
      13    C5      20.291406   18.581298   22.098478 C.3        1 MOL1        -0.1880
      14    H7      20.746563   19.434128   22.618100 H          1 MOL1         0.0742
      15    H8      20.710135   17.674902   22.556798 H          1 MOL1         0.0742
      16    C6      20.706642   18.620341   20.609359 C.3        1 MOL1        -0.1856
      17    H9      20.278604   17.756913   20.081649 H          1 MOL1         0.0742
      18    H10     21.798238   18.513700   20.544561 H          1 MOL1         0.0742
      19    C7      20.289583   19.924260   19.895259 C.3        1 MOL1        -0.2871
      20    H11     20.686017   20.803095   20.420340 H          1 MOL1         0.0754
      21    H12     19.197770   20.018875   19.841362 H          1 MOL1         0.0754
      22    H13     20.676414   19.940603   18.868153 H          1 MOL1         0.0754
@<TRIPOS>BOND
    1     1     2    1
    2     1     3    2
    3     1     4    1
    4     4     5    1
    5     4     6    1
    6     4     7    1
    7     7     8    1
    8     7     9    1
    9     7    10    1
   10    10    11    1
   11    10    12    1
   12    10    13    1
   13    13    14    1
   14    13    15    1
   15    13    16    1
   16    16    17    1
   17    16    18    1
   18    16    19    1
   19    19    20    1
   20    19    21    1
   21    19    22    1
@<TRIPOS>SUBSTRUCTURE
       1 MOL1            1 RESIDUE      1      MOL     
@<SCITEGIC>MOL_PROPERTY
VM2 Rank
SciTegic.value.IntegerValue
50

@<SCITEGIC>MOL_PROPERTY
Conf_Id
SciTegic.value.IntegerValue
151

@<SCITEGIC>MOL_PROPERTY
Probability
SciTegic.value.DoubleValue
0.01

@<SCITEGIC>MOL_PROPERTY
Sum Probability
SciTegic.value.DoubleValue
99.94

@<SCITEGIC>MOL_PROPERTY
Delta G
SciTegic.value.DoubleValue
4.730

@<SCITEGIC>MOL_PROPERTY
G
SciTegic.value.DoubleValue
-12.268

@<SCITEGIC>MOL_PROPERTY
E
SciTegic.value.DoubleValue
-32.628

@<SCITEGIC>MOL_PROPERTY
-TS
SciTegic.value.DoubleValue
20.360

@<SCITEGIC>MOL_PROPERTY
U+W
SciTegic.value.DoubleValue
-50.513

@<SCITEGIC>MOL_PROPERTY
U
SciTegic.value.DoubleValue
11.687

@<SCITEGIC>MOL_PROPERTY
W
SciTegic.value.DoubleValue
-62.200

@<SCITEGIC>MOL_PROPERTY
W(PB)
SciTegic.value.DoubleValue
-64.428

@<SCITEGIC>MOL_PROPERTY
W(SA)
SciTegic.value.DoubleValue
2.228

@<SCITEGIC>MOL_PROPERTY
Valence
SciTegic.value.DoubleValue
9.470

@<SCITEGIC>MOL_PROPERTY
Coulomb
SciTegic.value.DoubleValue
1.563

@<SCITEGIC>MOL_PROPERTY
VdW
SciTegic.value.DoubleValue
0.654

@<SCITEGIC>MOL_PROPERTY
VdW6
SciTegic.value.DoubleValue
-9.495

@<SCITEGIC>MOL_PROPERTY
VdW12
SciTegic.value.DoubleValue
10.149

@<SCITEGIC>MOL_PROPERTY
Bond
SciTegic.value.DoubleValue
0.216

@<SCITEGIC>MOL_PROPERTY
Angle
SciTegic.value.DoubleValue
3.352

@<SCITEGIC>MOL_PROPERTY
Pdih
SciTegic.value.DoubleValue
5.895

@<SCITEGIC>MOL_PROPERTY
Idih
SciTegic.value.DoubleValue
0.007

@<SCITEGIC>MOL_PROPERTY
Tether
SciTegic.value.DoubleValue
0.000

@<TRIPOS>MOLECULE
guest-s21_vm2.mol2 : vm2 ligand conformer 51
          22          21           1
SMALL
USER_CHARGES
 
@<TRIPOS>ATOM
       1    C1      20.106793   19.262673   25.383584 C.2        1 MOL1         0.6145
       2    O1      20.456632   20.424862   25.447178 O.co2      1 MOL1        -0.6735
       3    O2      20.808099   18.331993   25.729207 O.co2      1 MOL1        -0.6735
       4    C2      18.686651   18.963211   24.907257 C.3        1 MOL1        -0.1985
       5    H1      18.176127   19.909137   24.689514 H          1 MOL1         0.0740
       6    H2      18.164553   18.514649   25.760337 H          1 MOL1         0.0740
       7    C3      18.583114   18.001966   23.689519 C.3        1 MOL1        -0.1882
       8    H3      19.274014   17.157199   23.818245 H          1 MOL1         0.0742
       9    H4      17.574021   17.568209   23.686738 H          1 MOL1         0.0742
      10    C4      18.811257   18.669441   22.310299 C.3        1 MOL1        -0.1880
      11    H5      18.118442   19.513126   22.189021 H          1 MOL1         0.0742
      12    H6      18.544351   17.937283   21.537950 H          1 MOL1         0.0742
      13    C5      20.263503   19.151076   22.075937 C.3        1 MOL1        -0.1880
      14    H7      20.508251   19.932236   22.805859 H          1 MOL1         0.0742
      15    H8      20.964379   18.324427   22.255399 H          1 MOL1         0.0742
      16    C6      20.498234   19.734238   20.662669 C.3        1 MOL1        -0.1856
      17    H9      21.497071   20.191105   20.633939 H          1 MOL1         0.0742
      18    H10     19.781400   20.544684   20.471444 H          1 MOL1         0.0742
      19    C7      20.405716   18.679540   19.538351 C.3        1 MOL1        -0.2871
      20    H11     19.388670   18.279621   19.444072 H          1 MOL1         0.0754
      21    H12     21.089555   17.842024   19.728204 H          1 MOL1         0.0754
      22    H13     20.677197   19.124582   18.572362 H          1 MOL1         0.0754
@<TRIPOS>BOND
    1     1     2    1
    2     1     3    2
    3     1     4    1
    4     4     5    1
    5     4     6    1
    6     4     7    1
    7     7     8    1
    8     7     9    1
    9     7    10    1
   10    10    11    1
   11    10    12    1
   12    10    13    1
   13    13    14    1
   14    13    15    1
   15    13    16    1
   16    16    17    1
   17    16    18    1
   18    16    19    1
   19    19    20    1
   20    19    21    1
   21    19    22    1
@<TRIPOS>SUBSTRUCTURE
       1 MOL1            1 RESIDUE      1      MOL     
@<SCITEGIC>MOL_PROPERTY
VM2 Rank
SciTegic.value.IntegerValue
51

@<SCITEGIC>MOL_PROPERTY
Conf_Id
SciTegic.value.IntegerValue
190

@<SCITEGIC>MOL_PROPERTY
Probability
SciTegic.value.DoubleValue
0.01

@<SCITEGIC>MOL_PROPERTY
Sum Probability
SciTegic.value.DoubleValue
99.95

@<SCITEGIC>MOL_PROPERTY
Delta G
SciTegic.value.DoubleValue
4.747

@<SCITEGIC>MOL_PROPERTY
G
SciTegic.value.DoubleValue
-12.251

@<SCITEGIC>MOL_PROPERTY
E
SciTegic.value.DoubleValue
-32.443

@<SCITEGIC>MOL_PROPERTY
-TS
SciTegic.value.DoubleValue
20.192

@<SCITEGIC>MOL_PROPERTY
U+W
SciTegic.value.DoubleValue
-50.328

@<SCITEGIC>MOL_PROPERTY
U
SciTegic.value.DoubleValue
11.648

@<SCITEGIC>MOL_PROPERTY
W
SciTegic.value.DoubleValue
-61.977

@<SCITEGIC>MOL_PROPERTY
W(PB)
SciTegic.value.DoubleValue
-64.190

@<SCITEGIC>MOL_PROPERTY
W(SA)
SciTegic.value.DoubleValue
2.214

@<SCITEGIC>MOL_PROPERTY
Valence
SciTegic.value.DoubleValue
9.667

@<SCITEGIC>MOL_PROPERTY
Coulomb
SciTegic.value.DoubleValue
1.202

@<SCITEGIC>MOL_PROPERTY
VdW
SciTegic.value.DoubleValue
0.779

@<SCITEGIC>MOL_PROPERTY
VdW6
SciTegic.value.DoubleValue
-9.278

@<SCITEGIC>MOL_PROPERTY
VdW12
SciTegic.value.DoubleValue
10.058

@<SCITEGIC>MOL_PROPERTY
Bond
SciTegic.value.DoubleValue
0.225

@<SCITEGIC>MOL_PROPERTY
Angle
SciTegic.value.DoubleValue
3.506

@<SCITEGIC>MOL_PROPERTY
Pdih
SciTegic.value.DoubleValue
5.930

@<SCITEGIC>MOL_PROPERTY
Idih
SciTegic.value.DoubleValue
0.006

@<SCITEGIC>MOL_PROPERTY
Tether
SciTegic.value.DoubleValue
0.000

@<TRIPOS>MOLECULE
guest-s21_vm2.mol2 : vm2 ligand conformer 52
          22          21           1
SMALL
USER_CHARGES
 
@<TRIPOS>ATOM
       1    C1      20.220595   19.161619   25.673437 C.2        1 MOL1         0.6145
       2    O1      20.191770   20.227716   26.255851 O.co2      1 MOL1        -0.6735
       3    O2      20.297708   18.088521   26.238343 O.co2      1 MOL1        -0.6735
       4    C2      20.133617   19.170022   24.151494 C.3        1 MOL1        -0.1985
       5    H1      20.723688   18.324384   23.780964 H          1 MOL1         0.0740
       6    H2      20.608512   20.088976   23.787680 H          1 MOL1         0.0740
       7    C3      18.676325   19.078474   23.632775 C.3        1 MOL1        -0.1882
       8    H3      18.241840   18.117523   23.941001 H          1 MOL1         0.0742
       9    H4      18.078215   19.858064   24.124606 H          1 MOL1         0.0742
      10    C4      18.535499   19.245580   22.098905 C.3        1 MOL1        -0.1880
      11    H5      18.879075   20.243962   21.801127 H          1 MOL1         0.0742
      12    H6      17.463529   19.217502   21.860599 H          1 MOL1         0.0742
      13    C5      19.242669   18.144975   21.264062 C.3        1 MOL1        -0.1880
      14    H7      19.287772   17.215908   21.848470 H          1 MOL1         0.0742
      15    H8      18.623722   17.912471   20.386743 H          1 MOL1         0.0742
      16    C6      20.663703   18.515077   20.770623 C.3        1 MOL1        -0.1856
      17    H9      21.144770   17.608729   20.378053 H          1 MOL1         0.0742
      18    H10     21.287206   18.856675   21.605563 H          1 MOL1         0.0742
      19    C7      20.658114   19.587015   19.658509 C.3        1 MOL1        -0.2871
      20    H11     20.262283   20.543489   20.020977 H          1 MOL1         0.0754
      21    H12     20.047236   19.264516   18.805353 H          1 MOL1         0.0754
      22    H13     21.677803   19.766063   19.293743 H          1 MOL1         0.0754
@<TRIPOS>BOND
    1     1     2    1
    2     1     3    2
    3     1     4    1
    4     4     5    1
    5     4     6    1
    6     4     7    1
    7     7     8    1
    8     7     9    1
    9     7    10    1
   10    10    11    1
   11    10    12    1
   12    10    13    1
   13    13    14    1
   14    13    15    1
   15    13    16    1
   16    16    17    1
   17    16    18    1
   18    16    19    1
   19    19    20    1
   20    19    21    1
   21    19    22    1
@<TRIPOS>SUBSTRUCTURE
       1 MOL1            1 RESIDUE      1      MOL     
@<SCITEGIC>MOL_PROPERTY
VM2 Rank
SciTegic.value.IntegerValue
52

@<SCITEGIC>MOL_PROPERTY
Conf_Id
SciTegic.value.IntegerValue
158

@<SCITEGIC>MOL_PROPERTY
Probability
SciTegic.value.DoubleValue
0.01

@<SCITEGIC>MOL_PROPERTY
Sum Probability
SciTegic.value.DoubleValue
99.96

@<SCITEGIC>MOL_PROPERTY
Delta G
SciTegic.value.DoubleValue
4.833

@<SCITEGIC>MOL_PROPERTY
G
SciTegic.value.DoubleValue
-12.165

@<SCITEGIC>MOL_PROPERTY
E
SciTegic.value.DoubleValue
-32.168

@<SCITEGIC>MOL_PROPERTY
-TS
SciTegic.value.DoubleValue
20.003

@<SCITEGIC>MOL_PROPERTY
U+W
SciTegic.value.DoubleValue
-50.053

@<SCITEGIC>MOL_PROPERTY
U
SciTegic.value.DoubleValue
11.011

@<SCITEGIC>MOL_PROPERTY
W
SciTegic.value.DoubleValue
-61.064

@<SCITEGIC>MOL_PROPERTY
W(PB)
SciTegic.value.DoubleValue
-63.296

@<SCITEGIC>MOL_PROPERTY
W(SA)
SciTegic.value.DoubleValue
2.232

@<SCITEGIC>MOL_PROPERTY
Valence
SciTegic.value.DoubleValue
10.804

@<SCITEGIC>MOL_PROPERTY
Coulomb
SciTegic.value.DoubleValue
-0.760

@<SCITEGIC>MOL_PROPERTY
VdW
SciTegic.value.DoubleValue
0.967

@<SCITEGIC>MOL_PROPERTY
VdW6
SciTegic.value.DoubleValue
-8.670

@<SCITEGIC>MOL_PROPERTY
VdW12
SciTegic.value.DoubleValue
9.637

@<SCITEGIC>MOL_PROPERTY
Bond
SciTegic.value.DoubleValue
0.224

@<SCITEGIC>MOL_PROPERTY
Angle
SciTegic.value.DoubleValue
3.241

@<SCITEGIC>MOL_PROPERTY
Pdih
SciTegic.value.DoubleValue
7.339

@<SCITEGIC>MOL_PROPERTY
Idih
SciTegic.value.DoubleValue
0.001

@<SCITEGIC>MOL_PROPERTY
Tether
SciTegic.value.DoubleValue
0.000

@<TRIPOS>MOLECULE
guest-s21_vm2.mol2 : vm2 ligand conformer 53
          22          21           1
SMALL
USER_CHARGES
 
@<TRIPOS>ATOM
       1    C1      19.904738   19.045984   25.712718 C.2        1 MOL1         0.6145
       2    O1      18.904347   19.565917   26.166401 O.co2      1 MOL1        -0.6735
       3    O2      20.337956   17.976311   26.093630 O.co2      1 MOL1        -0.6735
       4    C2      20.673310   19.785892   24.621283 C.3        1 MOL1        -0.1985
       5    H1      21.735598   19.753261   24.890486 H          1 MOL1         0.0740
       6    H2      20.374536   20.841065   24.635409 H          1 MOL1         0.0740
       7    C3      20.481955   19.194247   23.200357 C.3        1 MOL1        -0.1882
       8    H3      21.188439   19.689057   22.522160 H          1 MOL1         0.0742
       9    H4      20.739874   18.126246   23.211753 H          1 MOL1         0.0742
      10    C4      19.043175   19.382674   22.666042 C.3        1 MOL1        -0.1880
      11    H5      18.824655   20.455536   22.577070 H          1 MOL1         0.0742
      12    H6      18.330331   18.984743   23.401124 H          1 MOL1         0.0742
      13    C5      18.772569   18.687330   21.308178 C.3        1 MOL1        -0.1880
      14    H7      18.898225   17.600705   21.410075 H          1 MOL1         0.0742
      15    H8      17.712970   18.843038   21.063493 H          1 MOL1         0.0742
      16    C6      19.622498   19.217535   20.126482 C.3        1 MOL1        -0.1856
      17    H9      19.904281   20.265343   20.299417 H          1 MOL1         0.0742
      18    H10     19.002935   19.213983   19.219052 H          1 MOL1         0.0742
      19    C7      20.879452   18.363108   19.848909 C.3        1 MOL1        -0.2871
      20    H11     20.602070   17.329859   19.602856 H          1 MOL1         0.0754
      21    H12     21.553412   18.335267   20.712568 H          1 MOL1         0.0754
      22    H13     21.440909   18.771248   18.998611 H          1 MOL1         0.0754
@<TRIPOS>BOND
    1     1     2    1
    2     1     3    2
    3     1     4    1
    4     4     5    1
    5     4     6    1
    6     4     7    1
    7     7     8    1
    8     7     9    1
    9     7    10    1
   10    10    11    1
   11    10    12    1
   12    10    13    1
   13    13    14    1
   14    13    15    1
   15    13    16    1
   16    16    17    1
   17    16    18    1
   18    16    19    1
   19    19    20    1
   20    19    21    1
   21    19    22    1
@<TRIPOS>SUBSTRUCTURE
       1 MOL1            1 RESIDUE      1      MOL     
@<SCITEGIC>MOL_PROPERTY
VM2 Rank
SciTegic.value.IntegerValue
53

@<SCITEGIC>MOL_PROPERTY
Conf_Id
SciTegic.value.IntegerValue
252

@<SCITEGIC>MOL_PROPERTY
Probability
SciTegic.value.DoubleValue
0.00

@<SCITEGIC>MOL_PROPERTY
Sum Probability
SciTegic.value.DoubleValue
99.97

@<SCITEGIC>MOL_PROPERTY
Delta G
SciTegic.value.DoubleValue
5.399

@<SCITEGIC>MOL_PROPERTY
G
SciTegic.value.DoubleValue
-11.599

@<SCITEGIC>MOL_PROPERTY
E
SciTegic.value.DoubleValue
-31.836

@<SCITEGIC>MOL_PROPERTY
-TS
SciTegic.value.DoubleValue
20.238

@<SCITEGIC>MOL_PROPERTY
U+W
SciTegic.value.DoubleValue
-49.721

@<SCITEGIC>MOL_PROPERTY
U
SciTegic.value.DoubleValue
11.773

@<SCITEGIC>MOL_PROPERTY
W
SciTegic.value.DoubleValue
-61.495

@<SCITEGIC>MOL_PROPERTY
W(PB)
SciTegic.value.DoubleValue
-63.748

@<SCITEGIC>MOL_PROPERTY
W(SA)
SciTegic.value.DoubleValue
2.254

@<SCITEGIC>MOL_PROPERTY
Valence
SciTegic.value.DoubleValue
10.419

@<SCITEGIC>MOL_PROPERTY
Coulomb
SciTegic.value.DoubleValue
0.566

@<SCITEGIC>MOL_PROPERTY
VdW
SciTegic.value.DoubleValue
0.789

@<SCITEGIC>MOL_PROPERTY
VdW6
SciTegic.value.DoubleValue
-8.847

@<SCITEGIC>MOL_PROPERTY
VdW12
SciTegic.value.DoubleValue
9.636

@<SCITEGIC>MOL_PROPERTY
Bond
SciTegic.value.DoubleValue
0.200

@<SCITEGIC>MOL_PROPERTY
Angle
SciTegic.value.DoubleValue
3.187

@<SCITEGIC>MOL_PROPERTY
Pdih
SciTegic.value.DoubleValue
7.032

@<SCITEGIC>MOL_PROPERTY
Idih
SciTegic.value.DoubleValue
0.001

@<SCITEGIC>MOL_PROPERTY
Tether
SciTegic.value.DoubleValue
0.000

@<TRIPOS>MOLECULE
guest-s21_vm2.mol2 : vm2 ligand conformer 54
          22          21           1
SMALL
USER_CHARGES
 
@<TRIPOS>ATOM
       1    C1      19.715978   19.150522   25.718637 C.2        1 MOL1         0.6145
       2    O1      19.823715   20.336675   25.960144 O.co2      1 MOL1        -0.6735
       3    O2      20.289699   18.282066   26.346027 O.co2      1 MOL1        -0.6735
       4    C2      18.794930   18.724828   24.578644 C.3        1 MOL1        -0.1985
       5    H1      18.110736   19.551902   24.353548 H          1 MOL1         0.0740
       6    H2      18.179673   17.895353   24.946610 H          1 MOL1         0.0740
       7    C3      19.542197   18.284357   23.293032 C.3        1 MOL1        -0.1882
       8    H3      20.243204   17.475415   23.541041 H          1 MOL1         0.0742
       9    H4      18.814787   17.860287   22.591139 H          1 MOL1         0.0742
      10    C4      20.309397   19.450360   22.623191 C.3        1 MOL1        -0.1880
      11    H5      21.067190   19.816261   23.329595 H          1 MOL1         0.0742
      12    H6      19.633391   20.296004   22.436992 H          1 MOL1         0.0742
      13    C5      21.022943   19.040236   21.309980 C.3        1 MOL1        -0.1880
      14    H7      21.974664   19.586094   21.253957 H          1 MOL1         0.0742
      15    H8      21.291169   17.975296   21.338443 H          1 MOL1         0.0742
      16    C6      20.229129   19.354962   20.017914 C.3        1 MOL1        -0.1856
      17    H9      20.857272   19.102313   19.152604 H          1 MOL1         0.0742
      18    H10     20.040966   20.435686   19.955728 H          1 MOL1         0.0742
      19    C7      18.892012   18.594994   19.896430 C.3        1 MOL1        -0.2871
      20    H11     18.173287   18.935971   20.651944 H          1 MOL1         0.0754
      21    H12     19.040604   17.514170   20.017693 H          1 MOL1         0.0754
      22    H13     18.441327   18.766553   18.910415 H          1 MOL1         0.0754
@<TRIPOS>BOND
    1     1     2    1
    2     1     3    2
    3     1     4    1
    4     4     5    1
    5     4     6    1
    6     4     7    1
    7     7     8    1
    8     7     9    1
    9     7    10    1
   10    10    11    1
   11    10    12    1
   12    10    13    1
   13    13    14    1
   14    13    15    1
   15    13    16    1
   16    16    17    1
   17    16    18    1
   18    16    19    1
   19    19    20    1
   20    19    21    1
   21    19    22    1
@<TRIPOS>SUBSTRUCTURE
       1 MOL1            1 RESIDUE      1      MOL     
@<SCITEGIC>MOL_PROPERTY
VM2 Rank
SciTegic.value.IntegerValue
54

@<SCITEGIC>MOL_PROPERTY
Conf_Id
SciTegic.value.IntegerValue
338

@<SCITEGIC>MOL_PROPERTY
Probability
SciTegic.value.DoubleValue
0.00

@<SCITEGIC>MOL_PROPERTY
Sum Probability
SciTegic.value.DoubleValue
99.97

@<SCITEGIC>MOL_PROPERTY
Delta G
SciTegic.value.DoubleValue
5.403

@<SCITEGIC>MOL_PROPERTY
G
SciTegic.value.DoubleValue
-11.595

@<SCITEGIC>MOL_PROPERTY
E
SciTegic.value.DoubleValue
-31.810

@<SCITEGIC>MOL_PROPERTY
-TS
SciTegic.value.DoubleValue
20.215

@<SCITEGIC>MOL_PROPERTY
U+W
SciTegic.value.DoubleValue
-49.695

@<SCITEGIC>MOL_PROPERTY
U
SciTegic.value.DoubleValue
11.659

@<SCITEGIC>MOL_PROPERTY
W
SciTegic.value.DoubleValue
-61.353

@<SCITEGIC>MOL_PROPERTY
W(PB)
SciTegic.value.DoubleValue
-63.612

@<SCITEGIC>MOL_PROPERTY
W(SA)
SciTegic.value.DoubleValue
2.259

@<SCITEGIC>MOL_PROPERTY
Valence
SciTegic.value.DoubleValue
10.364

@<SCITEGIC>MOL_PROPERTY
Coulomb
SciTegic.value.DoubleValue
0.563

@<SCITEGIC>MOL_PROPERTY
VdW
SciTegic.value.DoubleValue
0.732

@<SCITEGIC>MOL_PROPERTY
VdW6
SciTegic.value.DoubleValue
-8.874

@<SCITEGIC>MOL_PROPERTY
VdW12
SciTegic.value.DoubleValue
9.606

@<SCITEGIC>MOL_PROPERTY
Bond
SciTegic.value.DoubleValue
0.201

@<SCITEGIC>MOL_PROPERTY
Angle
SciTegic.value.DoubleValue
3.127

@<SCITEGIC>MOL_PROPERTY
Pdih
SciTegic.value.DoubleValue
7.035

@<SCITEGIC>MOL_PROPERTY
Idih
SciTegic.value.DoubleValue
0.001

@<SCITEGIC>MOL_PROPERTY
Tether
SciTegic.value.DoubleValue
0.000

@<TRIPOS>MOLECULE
guest-s21_vm2.mol2 : vm2 ligand conformer 55
          22          21           1
SMALL
USER_CHARGES
 
@<TRIPOS>ATOM
       1    C1      19.988431   18.982863   25.600617 C.2        1 MOL1         0.6145
       2    O1      20.063833   20.106696   26.056968 O.co2      1 MOL1        -0.6735
       3    O2      20.816482   18.117216   25.805384 O.co2      1 MOL1        -0.6735
       4    C2      18.776649   18.630354   24.742451 C.3        1 MOL1        -0.1985
       5    H1      17.978578   19.353442   24.949844 H          1 MOL1         0.0740
       6    H2      18.411885   17.651427   25.075097 H          1 MOL1         0.0740
       7    C3      19.074939   18.582076   23.221346 C.3        1 MOL1        -0.1882
       8    H3      19.889340   17.867684   23.043162 H          1 MOL1         0.0742
       9    H4      18.189783   18.200858   22.694769 H          1 MOL1         0.0742
      10    C4      19.455347   19.966545   22.647951 C.3        1 MOL1        -0.1880
      11    H5      20.401569   20.301799   23.094612 H          1 MOL1         0.0742
      12    H6      18.696058   20.699482   22.953056 H          1 MOL1         0.0742
      13    C5      19.575666   20.004805   21.103798 C.3        1 MOL1        -0.1880
      14    H7      18.608430   19.760741   20.643638 H          1 MOL1         0.0742
      15    H8      19.789388   21.043119   20.815549 H          1 MOL1         0.0742
      16    C6      20.691392   19.103492   20.518467 C.3        1 MOL1        -0.1856
      17    H9      21.502300   18.978094   21.249279 H          1 MOL1         0.0742
      18    H10     21.136423   19.613482   19.652941 H          1 MOL1         0.0742
      19    C7      20.177261   17.724954   20.047018 C.3        1 MOL1        -0.2871
      20    H11     20.999795   17.132026   19.626674 H          1 MOL1         0.0754
      21    H12     19.413313   17.839247   19.267028 H          1 MOL1         0.0754
      22    H13     19.737286   17.150026   20.869624 H          1 MOL1         0.0754
@<TRIPOS>BOND
    1     1     2    1
    2     1     3    2
    3     1     4    1
    4     4     5    1
    5     4     6    1
    6     4     7    1
    7     7     8    1
    8     7     9    1
    9     7    10    1
   10    10    11    1
   11    10    12    1
   12    10    13    1
   13    13    14    1
   14    13    15    1
   15    13    16    1
   16    16    17    1
   17    16    18    1
   18    16    19    1
   19    19    20    1
   20    19    21    1
   21    19    22    1
@<TRIPOS>SUBSTRUCTURE
       1 MOL1            1 RESIDUE      1      MOL     
@<SCITEGIC>MOL_PROPERTY
VM2 Rank
SciTegic.value.IntegerValue
55

@<SCITEGIC>MOL_PROPERTY
Conf_Id
SciTegic.value.IntegerValue
358

@<SCITEGIC>MOL_PROPERTY
Probability
SciTegic.value.DoubleValue
0.00

@<SCITEGIC>MOL_PROPERTY
Sum Probability
SciTegic.value.DoubleValue
99.98

@<SCITEGIC>MOL_PROPERTY
Delta G
SciTegic.value.DoubleValue
5.418

@<SCITEGIC>MOL_PROPERTY
G
SciTegic.value.DoubleValue
-11.580

@<SCITEGIC>MOL_PROPERTY
E
SciTegic.value.DoubleValue
-31.783

@<SCITEGIC>MOL_PROPERTY
-TS
SciTegic.value.DoubleValue
20.203

@<SCITEGIC>MOL_PROPERTY
U+W
SciTegic.value.DoubleValue
-49.668

@<SCITEGIC>MOL_PROPERTY
U
SciTegic.value.DoubleValue
12.072

@<SCITEGIC>MOL_PROPERTY
W
SciTegic.value.DoubleValue
-61.740

@<SCITEGIC>MOL_PROPERTY
W(PB)
SciTegic.value.DoubleValue
-63.968

@<SCITEGIC>MOL_PROPERTY
W(SA)
SciTegic.value.DoubleValue
2.228

@<SCITEGIC>MOL_PROPERTY
Valence
SciTegic.value.DoubleValue
10.343

@<SCITEGIC>MOL_PROPERTY
Coulomb
SciTegic.value.DoubleValue
1.037

@<SCITEGIC>MOL_PROPERTY
VdW
SciTegic.value.DoubleValue
0.692

@<SCITEGIC>MOL_PROPERTY
VdW6
SciTegic.value.DoubleValue
-8.924

@<SCITEGIC>MOL_PROPERTY
VdW12
SciTegic.value.DoubleValue
9.617

@<SCITEGIC>MOL_PROPERTY
Bond
SciTegic.value.DoubleValue
0.196

@<SCITEGIC>MOL_PROPERTY
Angle
SciTegic.value.DoubleValue
3.145

@<SCITEGIC>MOL_PROPERTY
Pdih
SciTegic.value.DoubleValue
7.001

@<SCITEGIC>MOL_PROPERTY
Idih
SciTegic.value.DoubleValue
0.001

@<SCITEGIC>MOL_PROPERTY
Tether
SciTegic.value.DoubleValue
0.000

@<TRIPOS>MOLECULE
guest-s21_vm2.mol2 : vm2 ligand conformer 56
          22          21           1
SMALL
USER_CHARGES
 
@<TRIPOS>ATOM
       1    C1      19.973638   19.256041   25.590161 C.2        1 MOL1         0.6145
       2    O1      20.702697   20.218977   25.724948 O.co2      1 MOL1        -0.6735
       3    O2      20.167806   18.184979   26.130595 O.co2      1 MOL1        -0.6735
       4    C2      18.734519   19.409424   24.712560 C.3        1 MOL1        -0.1985
       5    H1      18.265073   20.365903   24.970964 H          1 MOL1         0.0740
       6    H2      18.018106   18.622558   24.977850 H          1 MOL1         0.0740
       7    C3      19.032194   19.373238   23.190997 C.3        1 MOL1        -0.1882
       8    H3      18.113322   19.615562   22.640486 H          1 MOL1         0.0742
       9    H4      19.765644   20.155484   22.955427 H          1 MOL1         0.0742
      10    C4      19.561881   17.998073   22.723452 C.3        1 MOL1        -0.1880
      11    H5      18.884722   17.213071   23.086811 H          1 MOL1         0.0742
      12    H6      20.536868   17.801803   23.190478 H          1 MOL1         0.0742
      13    C5      19.691953   17.855140   21.186245 C.3        1 MOL1        -0.1880
      14    H7      20.017452   16.826917   20.977278 H          1 MOL1         0.0742
      15    H8      18.705949   17.957721   20.712820 H          1 MOL1         0.0742
      16    C6      20.706489   18.824005   20.529102 C.3        1 MOL1        -0.1856
      17    H9      21.207332   18.300299   19.703169 H          1 MOL1         0.0742
      18    H10     21.496228   19.091422   21.244771 H          1 MOL1         0.0742
      19    C7      20.048823   20.099123   19.955941 C.3        1 MOL1        -0.2871
      20    H11     19.546211   20.684492   20.734096 H          1 MOL1         0.0754
      21    H12     19.304759   19.844014   19.190206 H          1 MOL1         0.0754
      22    H13     20.804418   20.743306   19.488054 H          1 MOL1         0.0754
@<TRIPOS>BOND
    1     1     2    1
    2     1     3    2
    3     1     4    1
    4     4     5    1
    5     4     6    1
    6     4     7    1
    7     7     8    1
    8     7     9    1
    9     7    10    1
   10    10    11    1
   11    10    12    1
   12    10    13    1
   13    13    14    1
   14    13    15    1
   15    13    16    1
   16    16    17    1
   17    16    18    1
   18    16    19    1
   19    19    20    1
   20    19    21    1
   21    19    22    1
@<TRIPOS>SUBSTRUCTURE
       1 MOL1            1 RESIDUE      1      MOL     
@<SCITEGIC>MOL_PROPERTY
VM2 Rank
SciTegic.value.IntegerValue
56

@<SCITEGIC>MOL_PROPERTY
Conf_Id
SciTegic.value.IntegerValue
138

@<SCITEGIC>MOL_PROPERTY
Probability
SciTegic.value.DoubleValue
0.00

@<SCITEGIC>MOL_PROPERTY
Sum Probability
SciTegic.value.DoubleValue
99.98

@<SCITEGIC>MOL_PROPERTY
Delta G
SciTegic.value.DoubleValue
5.423

@<SCITEGIC>MOL_PROPERTY
G
SciTegic.value.DoubleValue
-11.575

@<SCITEGIC>MOL_PROPERTY
E
SciTegic.value.DoubleValue
-31.778

@<SCITEGIC>MOL_PROPERTY
-TS
SciTegic.value.DoubleValue
20.203

@<SCITEGIC>MOL_PROPERTY
U+W
SciTegic.value.DoubleValue
-49.663

@<SCITEGIC>MOL_PROPERTY
U
SciTegic.value.DoubleValue
12.072

@<SCITEGIC>MOL_PROPERTY
W
SciTegic.value.DoubleValue
-61.735

@<SCITEGIC>MOL_PROPERTY
W(PB)
SciTegic.value.DoubleValue
-63.969

@<SCITEGIC>MOL_PROPERTY
W(SA)
SciTegic.value.DoubleValue
2.234

@<SCITEGIC>MOL_PROPERTY
Valence
SciTegic.value.DoubleValue
10.343

@<SCITEGIC>MOL_PROPERTY
Coulomb
SciTegic.value.DoubleValue
1.037

@<SCITEGIC>MOL_PROPERTY
VdW
SciTegic.value.DoubleValue
0.692

@<SCITEGIC>MOL_PROPERTY
VdW6
SciTegic.value.DoubleValue
-8.924

@<SCITEGIC>MOL_PROPERTY
VdW12
SciTegic.value.DoubleValue
9.616

@<SCITEGIC>MOL_PROPERTY
Bond
SciTegic.value.DoubleValue
0.196

@<SCITEGIC>MOL_PROPERTY
Angle
SciTegic.value.DoubleValue
3.145

@<SCITEGIC>MOL_PROPERTY
Pdih
SciTegic.value.DoubleValue
7.001

@<SCITEGIC>MOL_PROPERTY
Idih
SciTegic.value.DoubleValue
0.001

@<SCITEGIC>MOL_PROPERTY
Tether
SciTegic.value.DoubleValue
0.000

@<TRIPOS>MOLECULE
guest-s21_vm2.mol2 : vm2 ligand conformer 57
          22          21           1
SMALL
USER_CHARGES
 
@<TRIPOS>ATOM
       1    C1      19.896754   19.192972   25.707077 C.2        1 MOL1         0.6145
       2    O1      20.210442   20.329122   26.003274 O.co2      1 MOL1        -0.6735
       3    O2      18.956486   18.604327   26.203395 O.co2      1 MOL1        -0.6735
       4    C2      20.745125   18.459072   24.672159 C.3        1 MOL1        -0.1985
       5    H1      20.561767   17.382018   24.768022 H          1 MOL1         0.0740
       6    H2      21.796580   18.626466   24.933716 H          1 MOL1         0.0740
       7    C3      20.497012   18.916437   23.211015 C.3        1 MOL1        -0.1882
       8    H3      20.638347   20.003740   23.139765 H          1 MOL1         0.0742
       9    H4      21.255473   18.450270   22.569663 H          1 MOL1         0.0742
      10    C4      19.089109   18.533897   22.698613 C.3        1 MOL1        -0.1880
      11    H5      18.334530   18.907732   23.404091 H          1 MOL1         0.0742
      12    H6      18.987771   17.440098   22.692764 H          1 MOL1         0.0742
      13    C5      18.750800   19.090276   21.292727 C.3        1 MOL1        -0.1880
      14    H7      17.715142   18.803153   21.065047 H          1 MOL1         0.0742
      15    H8      18.758315   20.188705   21.310778 H          1 MOL1         0.0742
      16    C6      19.657734   18.565921   20.151490 C.3        1 MOL1        -0.1856
      17    H9      19.045139   18.433405   19.249013 H          1 MOL1         0.0742
      18    H10     20.049965   17.570834   20.402819 H          1 MOL1         0.0742
      19    C7      20.816538   19.526976   19.804250 C.3        1 MOL1        -0.2871
      20    H11     21.479952   19.693206   20.660494 H          1 MOL1         0.0754
      21    H12     20.430554   20.502485   19.481011 H          1 MOL1         0.0754
      22    H13     21.422241   19.117823   18.985388 H          1 MOL1         0.0754
@<TRIPOS>BOND
    1     1     2    1
    2     1     3    2
    3     1     4    1
    4     4     5    1
    5     4     6    1
    6     4     7    1
    7     7     8    1
    8     7     9    1
    9     7    10    1
   10    10    11    1
   11    10    12    1
   12    10    13    1
   13    13    14    1
   14    13    15    1
   15    13    16    1
   16    16    17    1
   17    16    18    1
   18    16    19    1
   19    19    20    1
   20    19    21    1
   21    19    22    1
@<TRIPOS>SUBSTRUCTURE
       1 MOL1            1 RESIDUE      1      MOL     
@<SCITEGIC>MOL_PROPERTY
VM2 Rank
SciTegic.value.IntegerValue
57

@<SCITEGIC>MOL_PROPERTY
Conf_Id
SciTegic.value.IntegerValue
251

@<SCITEGIC>MOL_PROPERTY
Probability
SciTegic.value.DoubleValue
0.00

@<SCITEGIC>MOL_PROPERTY
Sum Probability
SciTegic.value.DoubleValue
99.98

@<SCITEGIC>MOL_PROPERTY
Delta G
SciTegic.value.DoubleValue
5.427

@<SCITEGIC>MOL_PROPERTY
G
SciTegic.value.DoubleValue
-11.571

@<SCITEGIC>MOL_PROPERTY
E
SciTegic.value.DoubleValue
-31.808

@<SCITEGIC>MOL_PROPERTY
-TS
SciTegic.value.DoubleValue
20.237

@<SCITEGIC>MOL_PROPERTY
U+W
SciTegic.value.DoubleValue
-49.693

@<SCITEGIC>MOL_PROPERTY
U
SciTegic.value.DoubleValue
11.773

@<SCITEGIC>MOL_PROPERTY
W
SciTegic.value.DoubleValue
-61.466

@<SCITEGIC>MOL_PROPERTY
W(PB)
SciTegic.value.DoubleValue
-63.715

@<SCITEGIC>MOL_PROPERTY
W(SA)
SciTegic.value.DoubleValue
2.248

@<SCITEGIC>MOL_PROPERTY
Valence
SciTegic.value.DoubleValue
10.419

@<SCITEGIC>MOL_PROPERTY
Coulomb
SciTegic.value.DoubleValue
0.566

@<SCITEGIC>MOL_PROPERTY
VdW
SciTegic.value.DoubleValue
0.789

@<SCITEGIC>MOL_PROPERTY
VdW6
SciTegic.value.DoubleValue
-8.847

@<SCITEGIC>MOL_PROPERTY
VdW12
SciTegic.value.DoubleValue
9.636

@<SCITEGIC>MOL_PROPERTY
Bond
SciTegic.value.DoubleValue
0.200

@<SCITEGIC>MOL_PROPERTY
Angle
SciTegic.value.DoubleValue
3.187

@<SCITEGIC>MOL_PROPERTY
Pdih
SciTegic.value.DoubleValue
7.032

@<SCITEGIC>MOL_PROPERTY
Idih
SciTegic.value.DoubleValue
0.001

@<SCITEGIC>MOL_PROPERTY
Tether
SciTegic.value.DoubleValue
0.000

@<TRIPOS>MOLECULE
guest-s21_vm2.mol2 : vm2 ligand conformer 58
          22          21           1
SMALL
USER_CHARGES
 
@<TRIPOS>ATOM
       1    C1      19.720340   19.069344   25.721687 C.2        1 MOL1         0.6145
       2    O1      20.194202   20.040066   26.278590 O.co2      1 MOL1        -0.6735
       3    O2      19.954664   17.923703   26.052576 O.co2      1 MOL1        -0.6735
       4    C2      18.763421   19.304725   24.556342 C.3        1 MOL1        -0.1985
       5    H1      18.060498   20.088390   24.862506 H          1 MOL1         0.0740
       6    H2      18.173675   18.393738   24.397777 H          1 MOL1         0.0740
       7    C3      19.464017   19.724136   23.237831 C.3        1 MOL1        -0.1882
       8    H3      18.697929   20.012092   22.508580 H          1 MOL1         0.0742
       9    H4      20.072215   20.620814   23.420509 H          1 MOL1         0.0742
      10    C4      20.355842   18.600402   22.655840 C.3        1 MOL1        -0.1880
      11    H5      19.776275   17.674704   22.537706 H          1 MOL1         0.0742
      12    H6      21.145949   18.373903   23.384927 H          1 MOL1         0.0742
      13    C5      21.026046   18.983860   21.312093 C.3        1 MOL1        -0.1880
      14    H7      21.177027   20.070654   21.257885 H          1 MOL1         0.0742
      15    H8      22.031593   18.541799   21.293933 H          1 MOL1         0.0742
      16    C6      20.276330   18.486958   20.051284 C.3        1 MOL1        -0.1856
      17    H9      20.206809   17.390628   20.072743 H          1 MOL1         0.0742
      18    H10     20.876854   18.739333   19.166505 H          1 MOL1         0.0742
      19    C7      18.865138   19.085805   19.877757 C.3        1 MOL1        -0.2871
      20    H11     18.895065   20.182464   19.915295 H          1 MOL1         0.0754
      21    H12     18.184620   18.727696   20.660244 H          1 MOL1         0.0754
      22    H13     18.439711   18.791375   18.909719 H          1 MOL1         0.0754
@<TRIPOS>BOND
    1     1     2    1
    2     1     3    2
    3     1     4    1
    4     4     5    1
    5     4     6    1
    6     4     7    1
    7     7     8    1
    8     7     9    1
    9     7    10    1
   10    10    11    1
   11    10    12    1
   12    10    13    1
   13    13    14    1
   14    13    15    1
   15    13    16    1
   16    16    17    1
   17    16    18    1
   18    16    19    1
   19    19    20    1
   20    19    21    1
   21    19    22    1
@<TRIPOS>SUBSTRUCTURE
       1 MOL1            1 RESIDUE      1      MOL     
@<SCITEGIC>MOL_PROPERTY
VM2 Rank
SciTegic.value.IntegerValue
58

@<SCITEGIC>MOL_PROPERTY
Conf_Id
SciTegic.value.IntegerValue
284

@<SCITEGIC>MOL_PROPERTY
Probability
SciTegic.value.DoubleValue
0.00

@<SCITEGIC>MOL_PROPERTY
Sum Probability
SciTegic.value.DoubleValue
99.99

@<SCITEGIC>MOL_PROPERTY
Delta G
SciTegic.value.DoubleValue
5.466

@<SCITEGIC>MOL_PROPERTY
G
SciTegic.value.DoubleValue
-11.532

@<SCITEGIC>MOL_PROPERTY
E
SciTegic.value.DoubleValue
-31.747

@<SCITEGIC>MOL_PROPERTY
-TS
SciTegic.value.DoubleValue
20.214

@<SCITEGIC>MOL_PROPERTY
U+W
SciTegic.value.DoubleValue
-49.631

@<SCITEGIC>MOL_PROPERTY
U
SciTegic.value.DoubleValue
11.659

@<SCITEGIC>MOL_PROPERTY
W
SciTegic.value.DoubleValue
-61.290

@<SCITEGIC>MOL_PROPERTY
W(PB)
SciTegic.value.DoubleValue
-63.516

@<SCITEGIC>MOL_PROPERTY
W(SA)
SciTegic.value.DoubleValue
2.225

@<SCITEGIC>MOL_PROPERTY
Valence
SciTegic.value.DoubleValue
10.364

@<SCITEGIC>MOL_PROPERTY
Coulomb
SciTegic.value.DoubleValue
0.563

@<SCITEGIC>MOL_PROPERTY
VdW
SciTegic.value.DoubleValue
0.732

@<SCITEGIC>MOL_PROPERTY
VdW6
SciTegic.value.DoubleValue
-8.874

@<SCITEGIC>MOL_PROPERTY
VdW12
SciTegic.value.DoubleValue
9.607

@<SCITEGIC>MOL_PROPERTY
Bond
SciTegic.value.DoubleValue
0.201

@<SCITEGIC>MOL_PROPERTY
Angle
SciTegic.value.DoubleValue
3.127

@<SCITEGIC>MOL_PROPERTY
Pdih
SciTegic.value.DoubleValue
7.036

@<SCITEGIC>MOL_PROPERTY
Idih
SciTegic.value.DoubleValue
0.001

@<SCITEGIC>MOL_PROPERTY
Tether
SciTegic.value.DoubleValue
0.000

@<TRIPOS>MOLECULE
guest-s21_vm2.mol2 : vm2 ligand conformer 59
          22          21           1
SMALL
USER_CHARGES
 
@<TRIPOS>ATOM
       1    C1      20.127047   18.941725   25.491638 C.2        1 MOL1         0.6145
       2    O1      19.571445   19.413906   26.464044 O.co2      1 MOL1        -0.6735
       3    O2      20.482067   17.781779   25.418405 O.co2      1 MOL1        -0.6735
       4    C2      20.416041   19.863926   24.310168 C.3        1 MOL1        -0.1985
       5    H1      21.176820   19.390326   23.681748 H          1 MOL1         0.0740
       6    H2      20.867854   20.776838   24.715358 H          1 MOL1         0.0740
       7    C3      19.157050   20.238886   23.479768 C.3        1 MOL1        -0.1882
       8    H3      18.405810   20.648726   24.169158 H          1 MOL1         0.0742
       9    H4      19.399794   21.050995   22.781306 H          1 MOL1         0.0742
      10    C4      18.528125   19.051309   22.705241 C.3        1 MOL1        -0.1880
      11    H5      17.438056   19.187269   22.700234 H          1 MOL1         0.0742
      12    H6      18.706850   18.106707   23.236795 H          1 MOL1         0.0742
      13    C5      18.987451   18.923454   21.231107 C.3        1 MOL1        -0.1880
      14    H7      18.420010   18.106710   20.764424 H          1 MOL1         0.0742
      15    H8      18.718619   19.836977   20.683375 H          1 MOL1         0.0742
      16    C6      20.496504   18.646523   21.057739 C.3        1 MOL1        -0.1856
      17    H9      20.791327   17.791098   21.681359 H          1 MOL1         0.0742
      18    H10     21.075797   19.514003   21.399501 H          1 MOL1         0.0742
      19    C7      20.854269   18.357493   19.585890 C.3        1 MOL1        -0.2871
      20    H11     20.591375   19.208359   18.943817 H          1 MOL1         0.0754
      21    H12     20.319976   17.471839   19.217842 H          1 MOL1         0.0754
      22    H13     21.930927   18.171975   19.479092 H          1 MOL1         0.0754
@<TRIPOS>BOND
    1     1     2    1
    2     1     3    2
    3     1     4    1
    4     4     5    1
    5     4     6    1
    6     4     7    1
    7     7     8    1
    8     7     9    1
    9     7    10    1
   10    10    11    1
   11    10    12    1
   12    10    13    1
   13    13    14    1
   14    13    15    1
   15    13    16    1
   16    16    17    1
   17    16    18    1
   18    16    19    1
   19    19    20    1
   20    19    21    1
   21    19    22    1
@<TRIPOS>SUBSTRUCTURE
       1 MOL1            1 RESIDUE      1      MOL     
@<SCITEGIC>MOL_PROPERTY
VM2 Rank
SciTegic.value.IntegerValue
59

@<SCITEGIC>MOL_PROPERTY
Conf_Id
SciTegic.value.IntegerValue
172

@<SCITEGIC>MOL_PROPERTY
Probability
SciTegic.value.DoubleValue
0.00

@<SCITEGIC>MOL_PROPERTY
Sum Probability
SciTegic.value.DoubleValue
99.99

@<SCITEGIC>MOL_PROPERTY
Delta G
SciTegic.value.DoubleValue
5.509

@<SCITEGIC>MOL_PROPERTY
G
SciTegic.value.DoubleValue
-11.489

@<SCITEGIC>MOL_PROPERTY
E
SciTegic.value.DoubleValue
-31.789

@<SCITEGIC>MOL_PROPERTY
-TS
SciTegic.value.DoubleValue
20.300

@<SCITEGIC>MOL_PROPERTY
U+W
SciTegic.value.DoubleValue
-49.673

@<SCITEGIC>MOL_PROPERTY
U
SciTegic.value.DoubleValue
11.908

@<SCITEGIC>MOL_PROPERTY
W
SciTegic.value.DoubleValue
-61.582

@<SCITEGIC>MOL_PROPERTY
W(PB)
SciTegic.value.DoubleValue
-63.808

@<SCITEGIC>MOL_PROPERTY
W(SA)
SciTegic.value.DoubleValue
2.226

@<SCITEGIC>MOL_PROPERTY
Valence
SciTegic.value.DoubleValue
10.449

@<SCITEGIC>MOL_PROPERTY
Coulomb
SciTegic.value.DoubleValue
0.769

@<SCITEGIC>MOL_PROPERTY
VdW
SciTegic.value.DoubleValue
0.691

@<SCITEGIC>MOL_PROPERTY
VdW6
SciTegic.value.DoubleValue
-9.053

@<SCITEGIC>MOL_PROPERTY
VdW12
SciTegic.value.DoubleValue
9.744

@<SCITEGIC>MOL_PROPERTY
Bond
SciTegic.value.DoubleValue
0.222

@<SCITEGIC>MOL_PROPERTY
Angle
SciTegic.value.DoubleValue
3.228

@<SCITEGIC>MOL_PROPERTY
Pdih
SciTegic.value.DoubleValue
6.998

@<SCITEGIC>MOL_PROPERTY
Idih
SciTegic.value.DoubleValue
0.001

@<SCITEGIC>MOL_PROPERTY
Tether
SciTegic.value.DoubleValue
0.000

@<TRIPOS>MOLECULE
guest-s21_vm2.mol2 : vm2 ligand conformer 60
          22          21           1
SMALL
USER_CHARGES
 
@<TRIPOS>ATOM
       1    C1      20.163839   19.173794   25.423520 C.2        1 MOL1         0.6145
       2    O1      20.931823   20.114482   25.471033 O.co2      1 MOL1        -0.6735
       3    O2      20.439941   18.059455   25.822290 O.co2      1 MOL1        -0.6735
       4    C2      18.766562   19.414062   24.858359 C.3        1 MOL1        -0.1985
       5    H1      18.386664   20.339771   25.306371 H          1 MOL1         0.0740
       6    H2      18.107801   18.604390   25.194927 H          1 MOL1         0.0740
       7    C3      18.725312   19.532090   23.312794 C.3        1 MOL1        -0.1882
       8    H3      17.719025   19.848932   23.007563 H          1 MOL1         0.0742
       9    H4      19.410989   20.327283   22.995974 H          1 MOL1         0.0742
      10    C4      19.071898   18.198470   22.606899 C.3        1 MOL1        -0.1880
      11    H5      18.341522   17.442601   22.926277 H          1 MOL1         0.0742
      12    H6      20.053747   17.831301   22.936014 H          1 MOL1         0.0742
      13    C5      19.036102   18.296334   21.060624 C.3        1 MOL1        -0.1880
      14    H7      18.646851   17.347433   20.667040 H          1 MOL1         0.0742
      15    H8      18.320427   19.067086   20.743542 H          1 MOL1         0.0742
      16    C6      20.413847   18.545183   20.398367 C.3        1 MOL1        -0.1856
      17    H9      20.286156   18.520999   19.307389 H          1 MOL1         0.0742
      18    H10     21.095368   17.719812   20.646437 H          1 MOL1         0.0742
      19    C7      21.070676   19.885131   20.790115 C.3        1 MOL1        -0.2871
      20    H11     21.361289   19.888631   21.848436 H          1 MOL1         0.0754
      21    H12     20.387502   20.725773   20.612680 H          1 MOL1         0.0754
      22    H13     21.978789   20.055312   20.197603 H          1 MOL1         0.0754
@<TRIPOS>BOND
    1     1     2    1
    2     1     3    2
    3     1     4    1
    4     4     5    1
    5     4     6    1
    6     4     7    1
    7     7     8    1
    8     7     9    1
    9     7    10    1
   10    10    11    1
   11    10    12    1
   12    10    13    1
   13    13    14    1
   14    13    15    1
   15    13    16    1
   16    16    17    1
   17    16    18    1
   18    16    19    1
   19    19    20    1
   20    19    21    1
   21    19    22    1
@<TRIPOS>SUBSTRUCTURE
       1 MOL1            1 RESIDUE      1      MOL     
@<SCITEGIC>MOL_PROPERTY
VM2 Rank
SciTegic.value.IntegerValue
60

@<SCITEGIC>MOL_PROPERTY
Conf_Id
SciTegic.value.IntegerValue
187

@<SCITEGIC>MOL_PROPERTY
Probability
SciTegic.value.DoubleValue
0.00

@<SCITEGIC>MOL_PROPERTY
Sum Probability
SciTegic.value.DoubleValue
99.99

@<SCITEGIC>MOL_PROPERTY
Delta G
SciTegic.value.DoubleValue
5.655

@<SCITEGIC>MOL_PROPERTY
G
SciTegic.value.DoubleValue
-11.343

@<SCITEGIC>MOL_PROPERTY
E
SciTegic.value.DoubleValue
-31.599

@<SCITEGIC>MOL_PROPERTY
-TS
SciTegic.value.DoubleValue
20.257

@<SCITEGIC>MOL_PROPERTY
U+W
SciTegic.value.DoubleValue
-49.484

@<SCITEGIC>MOL_PROPERTY
U
SciTegic.value.DoubleValue
12.672

@<SCITEGIC>MOL_PROPERTY
W
SciTegic.value.DoubleValue
-62.157

@<SCITEGIC>MOL_PROPERTY
W(PB)
SciTegic.value.DoubleValue
-64.364

@<SCITEGIC>MOL_PROPERTY
W(SA)
SciTegic.value.DoubleValue
2.207

@<SCITEGIC>MOL_PROPERTY
Valence
SciTegic.value.DoubleValue
10.318

@<SCITEGIC>MOL_PROPERTY
Coulomb
SciTegic.value.DoubleValue
1.786

@<SCITEGIC>MOL_PROPERTY
VdW
SciTegic.value.DoubleValue
0.569

@<SCITEGIC>MOL_PROPERTY
VdW6
SciTegic.value.DoubleValue
-9.119

@<SCITEGIC>MOL_PROPERTY
VdW12
SciTegic.value.DoubleValue
9.688

@<SCITEGIC>MOL_PROPERTY
Bond
SciTegic.value.DoubleValue
0.199

@<SCITEGIC>MOL_PROPERTY
Angle
SciTegic.value.DoubleValue
3.116

@<SCITEGIC>MOL_PROPERTY
Pdih
SciTegic.value.DoubleValue
7.002

@<SCITEGIC>MOL_PROPERTY
Idih
SciTegic.value.DoubleValue
0.001

@<SCITEGIC>MOL_PROPERTY
Tether
SciTegic.value.DoubleValue
0.000

@<TRIPOS>MOLECULE
guest-s21_vm2.mol2 : vm2 ligand conformer 61
          22          21           1
SMALL
USER_CHARGES
 
@<TRIPOS>ATOM
       1    C1      19.727972   19.437184   25.408834 C.2        1 MOL1         0.6145
       2    O1      20.201641   20.555728   25.446909 O.co2      1 MOL1        -0.6735
       3    O2      18.594681   19.174486   25.760459 O.co2      1 MOL1        -0.6735
       4    C2      20.616336   18.296332   24.920179 C.3        1 MOL1        -0.1985
       5    H1      20.189221   17.346680   25.264486 H          1 MOL1         0.0740
       6    H2      21.589444   18.404473   25.413474 H          1 MOL1         0.0740
       7    C3      20.815603   18.269062   23.382667 C.3        1 MOL1        -0.1882
       8    H3      21.216322   19.236421   23.056326 H          1 MOL1         0.0742
       9    H4      21.577703   17.517514   23.136612 H          1 MOL1         0.0742
      10    C4      19.509818   17.933749   22.621459 C.3        1 MOL1        -0.1880
      11    H5      18.713332   18.640884   22.891135 H          1 MOL1         0.0742
      12    H6      19.164559   16.945190   22.953632 H          1 MOL1         0.0742
      13    C5      19.688730   17.902046   21.082366 C.3        1 MOL1        -0.1880
      14    H7      20.718047   17.618568   20.823645 H          1 MOL1         0.0742
      15    H8      19.049328   17.104317   20.680331 H          1 MOL1         0.0742
      16    C6      19.302014   19.216987   20.361202 C.3        1 MOL1        -0.1856
      17    H9      18.243612   19.442776   20.551067 H          1 MOL1         0.0742
      18    H10     19.393322   19.060612   19.277536 H          1 MOL1         0.0742
      19    C7      20.163206   20.433426   20.759925 C.3        1 MOL1        -0.2871
      20    H11     19.921438   21.298388   20.128982 H          1 MOL1         0.0754
      21    H12     21.232427   20.215354   20.641176 H          1 MOL1         0.0754
      22    H13     19.979551   20.723345   21.802388 H          1 MOL1         0.0754
@<TRIPOS>BOND
    1     1     2    1
    2     1     3    2
    3     1     4    1
    4     4     5    1
    5     4     6    1
    6     4     7    1
    7     7     8    1
    8     7     9    1
    9     7    10    1
   10    10    11    1
   11    10    12    1
   12    10    13    1
   13    13    14    1
   14    13    15    1
   15    13    16    1
   16    16    17    1
   17    16    18    1
   18    16    19    1
   19    19    20    1
   20    19    21    1
   21    19    22    1
@<TRIPOS>SUBSTRUCTURE
       1 MOL1            1 RESIDUE      1      MOL     
@<SCITEGIC>MOL_PROPERTY
VM2 Rank
SciTegic.value.IntegerValue
61

@<SCITEGIC>MOL_PROPERTY
Conf_Id
SciTegic.value.IntegerValue
374

@<SCITEGIC>MOL_PROPERTY
Probability
SciTegic.value.DoubleValue
0.00

@<SCITEGIC>MOL_PROPERTY
Sum Probability
SciTegic.value.DoubleValue
100.00

@<SCITEGIC>MOL_PROPERTY
Delta G
SciTegic.value.DoubleValue
5.662

@<SCITEGIC>MOL_PROPERTY
G
SciTegic.value.DoubleValue
-11.336

@<SCITEGIC>MOL_PROPERTY
E
SciTegic.value.DoubleValue
-31.593

@<SCITEGIC>MOL_PROPERTY
-TS
SciTegic.value.DoubleValue
20.257

@<SCITEGIC>MOL_PROPERTY
U+W
SciTegic.value.DoubleValue
-49.478

@<SCITEGIC>MOL_PROPERTY
U
SciTegic.value.DoubleValue
12.672

@<SCITEGIC>MOL_PROPERTY
W
SciTegic.value.DoubleValue
-62.150

@<SCITEGIC>MOL_PROPERTY
W(PB)
SciTegic.value.DoubleValue
-64.358

@<SCITEGIC>MOL_PROPERTY
W(SA)
SciTegic.value.DoubleValue
2.208

@<SCITEGIC>MOL_PROPERTY
Valence
SciTegic.value.DoubleValue
10.318

@<SCITEGIC>MOL_PROPERTY
Coulomb
SciTegic.value.DoubleValue
1.785

@<SCITEGIC>MOL_PROPERTY
VdW
SciTegic.value.DoubleValue
0.569

@<SCITEGIC>MOL_PROPERTY
VdW6
SciTegic.value.DoubleValue
-9.119

@<SCITEGIC>MOL_PROPERTY
VdW12
SciTegic.value.DoubleValue
9.688

@<SCITEGIC>MOL_PROPERTY
Bond
SciTegic.value.DoubleValue
0.198

@<SCITEGIC>MOL_PROPERTY
Angle
SciTegic.value.DoubleValue
3.116

@<SCITEGIC>MOL_PROPERTY
Pdih
SciTegic.value.DoubleValue
7.003

@<SCITEGIC>MOL_PROPERTY
Idih
SciTegic.value.DoubleValue
0.001

@<SCITEGIC>MOL_PROPERTY
Tether
SciTegic.value.DoubleValue
0.000

@<TRIPOS>MOLECULE
guest-s21_vm2.mol2 : vm2 ligand conformer 62
          22          21           1
SMALL
USER_CHARGES
 
@<TRIPOS>ATOM
       1    C1      20.305738   18.917601   24.967048 C.2        1 MOL1         0.6145
       2    O1      20.438143   17.711458   25.040305 O.co2      1 MOL1        -0.6735
       3    O2      21.233906   19.699648   25.032703 O.co2      1 MOL1        -0.6735
       4    C2      18.888769   19.484658   24.904571 C.3        1 MOL1        -0.1985
       5    H1      18.937816   20.577771   24.978120 H          1 MOL1         0.0740
       6    H2      18.376673   19.132730   25.807632 H          1 MOL1         0.0740
       7    C3      18.060162   19.063464   23.658418 C.3        1 MOL1        -0.1882
       8    H3      18.201157   17.993523   23.455751 H          1 MOL1         0.0742
       9    H4      16.996753   19.178806   23.907692 H          1 MOL1         0.0742
      10    C4      18.332718   19.904533   22.384028 C.3        1 MOL1        -0.1880
      11    H5      18.132433   20.961435   22.606502 H          1 MOL1         0.0742
      12    H6      17.604216   19.616949   21.613727 H          1 MOL1         0.0742
      13    C5      19.755140   19.783393   21.784376 C.3        1 MOL1        -0.1880
      14    H7      19.820317   20.453192   20.916251 H          1 MOL1         0.0742
      15    H8      20.500052   20.148192   22.502701 H          1 MOL1         0.0742
      16    C6      20.115594   18.349481   21.335192 C.3        1 MOL1        -0.1856
      17    H9      19.344854   17.969804   20.650628 H          1 MOL1         0.0742
      18    H10     20.134740   17.676668   22.202942 H          1 MOL1         0.0742
      19    C7      21.489829   18.304763   20.637359 C.3        1 MOL1        -0.2871
      20    H11     21.733150   17.280131   20.327828 H          1 MOL1         0.0754
      21    H12     22.282088   18.651780   21.313831 H          1 MOL1         0.0754
      22    H13     21.498326   18.941000   19.742763 H          1 MOL1         0.0754
@<TRIPOS>BOND
    1     1     2    1
    2     1     3    2
    3     1     4    1
    4     4     5    1
    5     4     6    1
    6     4     7    1
    7     7     8    1
    8     7     9    1
    9     7    10    1
   10    10    11    1
   11    10    12    1
   12    10    13    1
   13    13    14    1
   14    13    15    1
   15    13    16    1
   16    16    17    1
   17    16    18    1
   18    16    19    1
   19    19    20    1
   20    19    21    1
   21    19    22    1
@<TRIPOS>SUBSTRUCTURE
       1 MOL1            1 RESIDUE      1      MOL     
@<SCITEGIC>MOL_PROPERTY
VM2 Rank
SciTegic.value.IntegerValue
62

@<SCITEGIC>MOL_PROPERTY
Conf_Id
SciTegic.value.IntegerValue
86

@<SCITEGIC>MOL_PROPERTY
Probability
SciTegic.value.DoubleValue
0.00

@<SCITEGIC>MOL_PROPERTY
Sum Probability
SciTegic.value.DoubleValue
100.00

@<SCITEGIC>MOL_PROPERTY
Delta G
SciTegic.value.DoubleValue
6.066

@<SCITEGIC>MOL_PROPERTY
G
SciTegic.value.DoubleValue
-10.932

@<SCITEGIC>MOL_PROPERTY
E
SciTegic.value.DoubleValue
-31.801

@<SCITEGIC>MOL_PROPERTY
-TS
SciTegic.value.DoubleValue
20.869

@<SCITEGIC>MOL_PROPERTY
U+W
SciTegic.value.DoubleValue
-49.686

@<SCITEGIC>MOL_PROPERTY
U
SciTegic.value.DoubleValue
12.939

@<SCITEGIC>MOL_PROPERTY
W
SciTegic.value.DoubleValue
-62.625

@<SCITEGIC>MOL_PROPERTY
W(PB)
SciTegic.value.DoubleValue
-64.804

@<SCITEGIC>MOL_PROPERTY
W(SA)
SciTegic.value.DoubleValue
2.178

@<SCITEGIC>MOL_PROPERTY
Valence
SciTegic.value.DoubleValue
9.684

@<SCITEGIC>MOL_PROPERTY
Coulomb
SciTegic.value.DoubleValue
3.146

@<SCITEGIC>MOL_PROPERTY
VdW
SciTegic.value.DoubleValue
0.109

@<SCITEGIC>MOL_PROPERTY
VdW6
SciTegic.value.DoubleValue
-10.251

@<SCITEGIC>MOL_PROPERTY
VdW12
SciTegic.value.DoubleValue
10.360

@<SCITEGIC>MOL_PROPERTY
Bond
SciTegic.value.DoubleValue
0.223

@<SCITEGIC>MOL_PROPERTY
Angle
SciTegic.value.DoubleValue
3.698

@<SCITEGIC>MOL_PROPERTY
Pdih
SciTegic.value.DoubleValue
5.745

@<SCITEGIC>MOL_PROPERTY
Idih
SciTegic.value.DoubleValue
0.018

@<SCITEGIC>MOL_PROPERTY
Tether
SciTegic.value.DoubleValue
0.000

@<TRIPOS>MOLECULE
guest-s21_vm2.mol2 : vm2 ligand conformer 63
          22          21           1
SMALL
USER_CHARGES
 
@<TRIPOS>ATOM
       1    C1      20.103840   19.435080   25.179630 C.2        1 MOL1         0.6145
       2    O1      20.949938   20.230331   24.821859 O.co2      1 MOL1        -0.6735
       3    O2      20.233315   18.709441   26.146315 O.co2      1 MOL1        -0.6735
       4    C2      18.787060   19.379625   24.407708 C.3        1 MOL1        -0.1985
       5    H1      18.786136   20.161344   23.640558 H          1 MOL1         0.0740
       6    H2      17.991612   19.641369   25.114870 H          1 MOL1         0.0740
       7    C3      18.472349   17.996086   23.778018 C.3        1 MOL1        -0.1882
       8    H3      18.437789   17.248055   24.582187 H          1 MOL1         0.0742
       9    H4      17.464044   18.019741   23.343229 H          1 MOL1         0.0742
      10    C4      19.479795   17.517991   22.701285 C.3        1 MOL1        -0.1880
      11    H5      19.218897   16.481775   22.446259 H          1 MOL1         0.0742
      12    H6      20.494899   17.473496   23.119421 H          1 MOL1         0.0742
      13    C5      19.465870   18.347537   21.391867 C.3        1 MOL1        -0.1880
      14    H7      19.599842   17.660274   20.545292 H          1 MOL1         0.0742
      15    H8      18.482871   18.817046   21.250695 H          1 MOL1         0.0742
      16    C6      20.583008   19.413419   21.324649 C.3        1 MOL1        -0.1856
      17    H9      21.562611   18.928335   21.434697 H          1 MOL1         0.0742
      18    H10     20.489892   20.121716   22.156359 H          1 MOL1         0.0742
      19    C7      20.544824   20.189490   19.992669 C.3        1 MOL1        -0.2871
      20    H11     21.346111   20.939044   19.959264 H          1 MOL1         0.0754
      21    H12     19.586898   20.711739   19.870552 H          1 MOL1         0.0754
      22    H13     20.678039   19.512331   19.138867 H          1 MOL1         0.0754
@<TRIPOS>BOND
    1     1     2    1
    2     1     3    2
    3     1     4    1
    4     4     5    1
    5     4     6    1
    6     4     7    1
    7     7     8    1
    8     7     9    1
    9     7    10    1
   10    10    11    1
   11    10    12    1
   12    10    13    1
   13    13    14    1
   14    13    15    1
   15    13    16    1
   16    16    17    1
   17    16    18    1
   18    16    19    1
   19    19    20    1
   20    19    21    1
   21    19    22    1
@<TRIPOS>SUBSTRUCTURE
       1 MOL1            1 RESIDUE      1      MOL     
@<SCITEGIC>MOL_PROPERTY
VM2 Rank
SciTegic.value.IntegerValue
63

@<SCITEGIC>MOL_PROPERTY
Conf_Id
SciTegic.value.IntegerValue
291

@<SCITEGIC>MOL_PROPERTY
Probability
SciTegic.value.DoubleValue
0.00

@<SCITEGIC>MOL_PROPERTY
Sum Probability
SciTegic.value.DoubleValue
100.00

@<SCITEGIC>MOL_PROPERTY
Delta G
SciTegic.value.DoubleValue
6.215

@<SCITEGIC>MOL_PROPERTY
G
SciTegic.value.DoubleValue
-10.783

@<SCITEGIC>MOL_PROPERTY
E
SciTegic.value.DoubleValue
-31.080

@<SCITEGIC>MOL_PROPERTY
-TS
SciTegic.value.DoubleValue
20.297

@<SCITEGIC>MOL_PROPERTY
U+W
SciTegic.value.DoubleValue
-48.965

@<SCITEGIC>MOL_PROPERTY
U
SciTegic.value.DoubleValue
13.118

@<SCITEGIC>MOL_PROPERTY
W
SciTegic.value.DoubleValue
-62.083

@<SCITEGIC>MOL_PROPERTY
W(PB)
SciTegic.value.DoubleValue
-64.298

@<SCITEGIC>MOL_PROPERTY
W(SA)
SciTegic.value.DoubleValue
2.215

@<SCITEGIC>MOL_PROPERTY
Valence
SciTegic.value.DoubleValue
10.731

@<SCITEGIC>MOL_PROPERTY
Coulomb
SciTegic.value.DoubleValue
2.057

@<SCITEGIC>MOL_PROPERTY
VdW
SciTegic.value.DoubleValue
0.330

@<SCITEGIC>MOL_PROPERTY
VdW6
SciTegic.value.DoubleValue
-9.569

@<SCITEGIC>MOL_PROPERTY
VdW12
SciTegic.value.DoubleValue
9.899

@<SCITEGIC>MOL_PROPERTY
Bond
SciTegic.value.DoubleValue
0.211

@<SCITEGIC>MOL_PROPERTY
Angle
SciTegic.value.DoubleValue
3.393

@<SCITEGIC>MOL_PROPERTY
Pdih
SciTegic.value.DoubleValue
7.123

@<SCITEGIC>MOL_PROPERTY
Idih
SciTegic.value.DoubleValue
0.004

@<SCITEGIC>MOL_PROPERTY
Tether
SciTegic.value.DoubleValue
0.000

@<TRIPOS>MOLECULE
guest-s21_vm2.mol2 : vm2 ligand conformer 64
          22          21           1
SMALL
USER_CHARGES
 
@<TRIPOS>ATOM
       1    C1      20.197758   19.128480   25.106234 C.2        1 MOL1         0.6145
       2    O1      20.821133   20.171799   25.083750 O.co2      1 MOL1        -0.6735
       3    O2      20.675542   18.069726   25.464282 O.co2      1 MOL1        -0.6735
       4    C2      18.707941   19.171593   24.772858 C.3        1 MOL1        -0.1985
       5    H1      18.256012   19.883757   25.473008 H          1 MOL1         0.0740
       6    H2      18.264782   18.192759   24.992285 H          1 MOL1         0.0740
       7    C3      18.365159   19.606265   23.320093 C.3        1 MOL1        -0.1882
       8    H3      17.327406   19.965657   23.313523 H          1 MOL1         0.0742
       9    H4      18.978832   20.469138   23.029131 H          1 MOL1         0.0742
      10    C4      18.472843   18.476045   22.263459 C.3        1 MOL1        -0.1880
      11    H5      18.049329   18.838177   21.317544 H          1 MOL1         0.0742
      12    H6      17.830351   17.640193   22.571641 H          1 MOL1         0.0742
      13    C5      19.900617   17.932244   21.998768 C.3        1 MOL1        -0.1880
      14    H7      20.277178   17.439202   22.903762 H          1 MOL1         0.0742
      15    H8      19.836773   17.142205   21.238463 H          1 MOL1         0.0742
      16    C6      20.933255   18.987082   21.530537 C.3        1 MOL1        -0.1856
      17    H9      21.904896   18.491146   21.401468 H          1 MOL1         0.0742
      18    H10     21.082232   19.744266   22.311715 H          1 MOL1         0.0742
      19    C7      20.545752   19.675766   20.204019 C.3        1 MOL1        -0.2871
      20    H11     20.371818   18.935046   19.412824 H          1 MOL1         0.0754
      21    H12     21.348470   20.345952   19.870552 H          1 MOL1         0.0754
      22    H13     19.635892   20.278074   20.319317 H          1 MOL1         0.0754
@<TRIPOS>BOND
    1     1     2    1
    2     1     3    2
    3     1     4    1
    4     4     5    1
    5     4     6    1
    6     4     7    1
    7     7     8    1
    8     7     9    1
    9     7    10    1
   10    10    11    1
   11    10    12    1
   12    10    13    1
   13    13    14    1
   14    13    15    1
   15    13    16    1
   16    16    17    1
   17    16    18    1
   18    16    19    1
   19    19    20    1
   20    19    21    1
   21    19    22    1
@<TRIPOS>SUBSTRUCTURE
       1 MOL1            1 RESIDUE      1      MOL     
@<SCITEGIC>MOL_PROPERTY
VM2 Rank
SciTegic.value.IntegerValue
64

@<SCITEGIC>MOL_PROPERTY
Conf_Id
SciTegic.value.IntegerValue
304

@<SCITEGIC>MOL_PROPERTY
Probability
SciTegic.value.DoubleValue
0.00

@<SCITEGIC>MOL_PROPERTY
Sum Probability
SciTegic.value.DoubleValue
100.00

@<SCITEGIC>MOL_PROPERTY
Delta G
SciTegic.value.DoubleValue
6.526

@<SCITEGIC>MOL_PROPERTY
G
SciTegic.value.DoubleValue
-10.472

@<SCITEGIC>MOL_PROPERTY
E
SciTegic.value.DoubleValue
-31.604

@<SCITEGIC>MOL_PROPERTY
-TS
SciTegic.value.DoubleValue
21.132

@<SCITEGIC>MOL_PROPERTY
U+W
SciTegic.value.DoubleValue
-49.489

@<SCITEGIC>MOL_PROPERTY
U
SciTegic.value.DoubleValue
12.978

@<SCITEGIC>MOL_PROPERTY
W
SciTegic.value.DoubleValue
-62.467

@<SCITEGIC>MOL_PROPERTY
W(PB)
SciTegic.value.DoubleValue
-64.624

@<SCITEGIC>MOL_PROPERTY
W(SA)
SciTegic.value.DoubleValue
2.157

@<SCITEGIC>MOL_PROPERTY
Valence
SciTegic.value.DoubleValue
10.104

@<SCITEGIC>MOL_PROPERTY
Coulomb
SciTegic.value.DoubleValue
2.676

@<SCITEGIC>MOL_PROPERTY
VdW
SciTegic.value.DoubleValue
0.197

@<SCITEGIC>MOL_PROPERTY
VdW6
SciTegic.value.DoubleValue
-10.984

@<SCITEGIC>MOL_PROPERTY
VdW12
SciTegic.value.DoubleValue
11.181

@<SCITEGIC>MOL_PROPERTY
Bond
SciTegic.value.DoubleValue
0.262

@<SCITEGIC>MOL_PROPERTY
Angle
SciTegic.value.DoubleValue
4.020

@<SCITEGIC>MOL_PROPERTY
Pdih
SciTegic.value.DoubleValue
5.805

@<SCITEGIC>MOL_PROPERTY
Idih
SciTegic.value.DoubleValue
0.017

@<SCITEGIC>MOL_PROPERTY
Tether
SciTegic.value.DoubleValue
0.000

@<TRIPOS>MOLECULE
guest-s21_vm2.mol2 : vm2 ligand conformer 65
          22          21           1
SMALL
USER_CHARGES
 
@<TRIPOS>ATOM
       1    C1      19.953553   19.034970   25.592101 C.2        1 MOL1         0.6145
       2    O1      19.534794   19.913303   26.320407 O.co2      1 MOL1        -0.6735
       3    O2      19.757263   17.851432   25.785997 O.co2      1 MOL1        -0.6735
       4    C2      20.792354   19.441836   24.383731 C.3        1 MOL1        -0.1985
       5    H1      21.337320   18.561971   24.024937 H          1 MOL1         0.0740
       6    H2      21.548793   20.151377   24.738829 H          1 MOL1         0.0740
       7    C3      19.976059   20.096586   23.234849 C.3        1 MOL1        -0.1882
       8    H3      19.461982   20.981136   23.635365 H          1 MOL1         0.0742
       9    H4      20.668841   20.468086   22.470865 H          1 MOL1         0.0742
      10    C4      18.921708   19.160567   22.587746 C.3        1 MOL1        -0.1880
      11    H5      18.242259   19.754623   21.961717 H          1 MOL1         0.0742
      12    H6      18.293263   18.738786   23.383920 H          1 MOL1         0.0742
      13    C5      19.509933   17.996840   21.746055 C.3        1 MOL1        -0.1880
      14    H7      20.490628   17.690922   22.130097 H          1 MOL1         0.0742
      15    H8      18.857163   17.122717   21.874471 H          1 MOL1         0.0742
      16    C6      19.607895   18.285057   20.227586 C.3        1 MOL1        -0.1856
      17    H9      18.607763   18.502323   19.827936 H          1 MOL1         0.0742
      18    H10     19.949313   17.371852   19.721005 H          1 MOL1         0.0742
      19    C7      20.566442   19.438408   19.865527 C.3        1 MOL1        -0.2871
      20    H11     20.176114   20.401790   20.216182 H          1 MOL1         0.0754
      21    H12     20.689356   19.508036   18.777043 H          1 MOL1         0.0754
      22    H13     21.557940   19.280584   20.309427 H          1 MOL1         0.0754
@<TRIPOS>BOND
    1     1     2    1
    2     1     3    2
    3     1     4    1
    4     4     5    1
    5     4     6    1
    6     4     7    1
    7     7     8    1
    8     7     9    1
    9     7    10    1
   10    10    11    1
   11    10    12    1
   12    10    13    1
   13    13    14    1
   14    13    15    1
   15    13    16    1
   16    16    17    1
   17    16    18    1
   18    16    19    1
   19    19    20    1
   20    19    21    1
   21    19    22    1
@<TRIPOS>SUBSTRUCTURE
       1 MOL1            1 RESIDUE      1      MOL     
@<SCITEGIC>MOL_PROPERTY
VM2 Rank
SciTegic.value.IntegerValue
65

@<SCITEGIC>MOL_PROPERTY
Conf_Id
SciTegic.value.IntegerValue
330

@<SCITEGIC>MOL_PROPERTY
Probability
SciTegic.value.DoubleValue
0.00

@<SCITEGIC>MOL_PROPERTY
Sum Probability
SciTegic.value.DoubleValue
100.00

@<SCITEGIC>MOL_PROPERTY
Delta G
SciTegic.value.DoubleValue
6.564

@<SCITEGIC>MOL_PROPERTY
G
SciTegic.value.DoubleValue
-10.434

@<SCITEGIC>MOL_PROPERTY
E
SciTegic.value.DoubleValue
-30.642

@<SCITEGIC>MOL_PROPERTY
-TS
SciTegic.value.DoubleValue
20.208

@<SCITEGIC>MOL_PROPERTY
U+W
SciTegic.value.DoubleValue
-48.527

@<SCITEGIC>MOL_PROPERTY
U
SciTegic.value.DoubleValue
12.987

@<SCITEGIC>MOL_PROPERTY
W
SciTegic.value.DoubleValue
-61.514

@<SCITEGIC>MOL_PROPERTY
W(PB)
SciTegic.value.DoubleValue
-63.717

@<SCITEGIC>MOL_PROPERTY
W(SA)
SciTegic.value.DoubleValue
2.203

@<SCITEGIC>MOL_PROPERTY
Valence
SciTegic.value.DoubleValue
11.114

@<SCITEGIC>MOL_PROPERTY
Coulomb
SciTegic.value.DoubleValue
1.103

@<SCITEGIC>MOL_PROPERTY
VdW
SciTegic.value.DoubleValue
0.770

@<SCITEGIC>MOL_PROPERTY
VdW6
SciTegic.value.DoubleValue
-9.558

@<SCITEGIC>MOL_PROPERTY
VdW12
SciTegic.value.DoubleValue
10.328

@<SCITEGIC>MOL_PROPERTY
Bond
SciTegic.value.DoubleValue
0.268

@<SCITEGIC>MOL_PROPERTY
Angle
SciTegic.value.DoubleValue
3.531

@<SCITEGIC>MOL_PROPERTY
Pdih
SciTegic.value.DoubleValue
7.314

@<SCITEGIC>MOL_PROPERTY
Idih
SciTegic.value.DoubleValue
0.001

@<SCITEGIC>MOL_PROPERTY
Tether
SciTegic.value.DoubleValue
0.000

@<TRIPOS>MOLECULE
guest-s21_vm2.mol2 : vm2 ligand conformer 66
          22          21           1
SMALL
USER_CHARGES
 
@<TRIPOS>ATOM
       1    C1      19.944651   19.199969   25.585766 C.2        1 MOL1         0.6145
       2    O1      19.621128   20.366789   25.689465 O.co2      1 MOL1        -0.6735
       3    O2      19.620048   18.339862   26.380817 O.co2      1 MOL1        -0.6735
       4    C2      20.827348   18.794741   24.408515 C.3        1 MOL1        -0.1985
       5    H1      21.654370   18.200035   24.813609 H          1 MOL1         0.0740
       6    H2      21.275813   19.698209   23.981307 H          1 MOL1         0.0740
       7    C3      20.091060   17.970030   23.316404 C.3        1 MOL1        -0.1882
       8    H3      20.822962   17.618043   22.580159 H          1 MOL1         0.0742
       9    H4      19.673611   17.068450   23.785454 H          1 MOL1         0.0742
      10    C4      18.944691   18.734849   22.604072 C.3        1 MOL1        -0.1880
      11    H5      18.271181   19.146025   23.368308 H          1 MOL1         0.0742
      12    H6      18.335787   18.024993   22.028045 H          1 MOL1         0.0742
      13    C5      19.407584   19.887494   21.673558 C.3        1 MOL1        -0.1880
      14    H7      18.663882   20.693413   21.737520 H          1 MOL1         0.0742
      15    H8      20.347988   20.325755   22.029093 H          1 MOL1         0.0742
      16    C6      19.542363   19.496421   20.181141 C.3        1 MOL1        -0.1856
      17    H9      19.785476   20.399747   19.604917 H          1 MOL1         0.0742
      18    H10     18.573146   19.142757   19.803349 H          1 MOL1         0.0742
      19    C7      20.621127   18.428845   19.904262 C.3        1 MOL1        -0.2871
      20    H11     20.755385   18.290008   18.823774 H          1 MOL1         0.0754
      21    H12     20.335432   17.458593   20.329004 H          1 MOL1         0.0754
      22    H13     21.587975   18.726016   20.330779 H          1 MOL1         0.0754
@<TRIPOS>BOND
    1     1     2    1
    2     1     3    2
    3     1     4    1
    4     4     5    1
    5     4     6    1
    6     4     7    1
    7     7     8    1
    8     7     9    1
    9     7    10    1
   10    10    11    1
   11    10    12    1
   12    10    13    1
   13    13    14    1
   14    13    15    1
   15    13    16    1
   16    16    17    1
   17    16    18    1
   18    16    19    1
   19    19    20    1
   20    19    21    1
   21    19    22    1
@<TRIPOS>SUBSTRUCTURE
       1 MOL1            1 RESIDUE      1      MOL     
@<SCITEGIC>MOL_PROPERTY
VM2 Rank
SciTegic.value.IntegerValue
66

@<SCITEGIC>MOL_PROPERTY
Conf_Id
SciTegic.value.IntegerValue
372

@<SCITEGIC>MOL_PROPERTY
Probability
SciTegic.value.DoubleValue
0.00

@<SCITEGIC>MOL_PROPERTY
Sum Probability
SciTegic.value.DoubleValue
100.00

@<SCITEGIC>MOL_PROPERTY
Delta G
SciTegic.value.DoubleValue
6.596

@<SCITEGIC>MOL_PROPERTY
G
SciTegic.value.DoubleValue
-10.402

@<SCITEGIC>MOL_PROPERTY
E
SciTegic.value.DoubleValue
-30.610

@<SCITEGIC>MOL_PROPERTY
-TS
SciTegic.value.DoubleValue
20.208

@<SCITEGIC>MOL_PROPERTY
U+W
SciTegic.value.DoubleValue
-48.495

@<SCITEGIC>MOL_PROPERTY
U
SciTegic.value.DoubleValue
12.987

@<SCITEGIC>MOL_PROPERTY
W
SciTegic.value.DoubleValue
-61.482

@<SCITEGIC>MOL_PROPERTY
W(PB)
SciTegic.value.DoubleValue
-63.694

@<SCITEGIC>MOL_PROPERTY
W(SA)
SciTegic.value.DoubleValue
2.213

@<SCITEGIC>MOL_PROPERTY
Valence
SciTegic.value.DoubleValue
11.114

@<SCITEGIC>MOL_PROPERTY
Coulomb
SciTegic.value.DoubleValue
1.103

@<SCITEGIC>MOL_PROPERTY
VdW
SciTegic.value.DoubleValue
0.770

@<SCITEGIC>MOL_PROPERTY
VdW6
SciTegic.value.DoubleValue
-9.558

@<SCITEGIC>MOL_PROPERTY
VdW12
SciTegic.value.DoubleValue
10.328

@<SCITEGIC>MOL_PROPERTY
Bond
SciTegic.value.DoubleValue
0.268

@<SCITEGIC>MOL_PROPERTY
Angle
SciTegic.value.DoubleValue
3.531

@<SCITEGIC>MOL_PROPERTY
Pdih
SciTegic.value.DoubleValue
7.314

@<SCITEGIC>MOL_PROPERTY
Idih
SciTegic.value.DoubleValue
0.001

@<SCITEGIC>MOL_PROPERTY
Tether
SciTegic.value.DoubleValue
0.000

@<TRIPOS>MOLECULE
guest-s21_vm2.mol2 : vm2 ligand conformer 67
          22          21           1
SMALL
USER_CHARGES
 
@<TRIPOS>ATOM
       1    C1      20.143050   19.218174   25.358929 C.2        1 MOL1         0.6145
       2    O1      20.263925   20.426907   25.322291 O.co2      1 MOL1        -0.6735
       3    O2      19.699160   18.616544   26.317286 O.co2      1 MOL1        -0.6735
       4    C2      20.599682   18.406950   24.149683 C.3        1 MOL1        -0.1985
       5    H1      21.245055   17.602498   24.520924 H          1 MOL1         0.0740
       6    H2      21.228900   19.045134   23.519523 H          1 MOL1         0.0740
       7    C3      19.436405   17.793090   23.323096 C.3        1 MOL1        -0.1882
       8    H3      19.841852   17.145073   22.536573 H          1 MOL1         0.0742
       9    H4      18.851856   17.134190   23.979779 H          1 MOL1         0.0742
      10    C4      18.480428   18.837523   22.695262 C.3        1 MOL1        -0.1880
      11    H5      18.002609   19.407812   23.503628 H          1 MOL1         0.0742
      12    H6      17.665871   18.306787   22.184089 H          1 MOL1         0.0742
      13    C5      19.124669   19.840232   21.702071 C.3        1 MOL1        -0.1880
      14    H7      18.342594   20.555940   21.414430 H          1 MOL1         0.0742
      15    H8      19.896554   20.440155   22.202181 H          1 MOL1         0.0742
      16    C6      19.682722   19.205322   20.403202 C.3        1 MOL1        -0.1856
      17    H9      19.532154   19.915066   19.578077 H          1 MOL1         0.0742
      18    H10     19.107746   18.306689   20.140799 H          1 MOL1         0.0742
      19    C7      21.189959   18.874258   20.472181 C.3        1 MOL1        -0.2871
      20    H11     21.407056   18.114202   21.230298 H          1 MOL1         0.0754
      21    H12     21.777029   19.770733   20.710149 H          1 MOL1         0.0754
      22    H13     21.541664   18.489308   19.506342 H          1 MOL1         0.0754
@<TRIPOS>BOND
    1     1     2    1
    2     1     3    2
    3     1     4    1
    4     4     5    1
    5     4     6    1
    6     4     7    1
    7     7     8    1
    8     7     9    1
    9     7    10    1
   10    10    11    1
   11    10    12    1
   12    10    13    1
   13    13    14    1
   14    13    15    1
   15    13    16    1
   16    16    17    1
   17    16    18    1
   18    16    19    1
   19    19    20    1
   20    19    21    1
   21    19    22    1
@<TRIPOS>SUBSTRUCTURE
       1 MOL1            1 RESIDUE      1      MOL     
@<SCITEGIC>MOL_PROPERTY
VM2 Rank
SciTegic.value.IntegerValue
67

@<SCITEGIC>MOL_PROPERTY
Conf_Id
SciTegic.value.IntegerValue
301

@<SCITEGIC>MOL_PROPERTY
Probability
SciTegic.value.DoubleValue
0.00

@<SCITEGIC>MOL_PROPERTY
Sum Probability
SciTegic.value.DoubleValue
100.00

@<SCITEGIC>MOL_PROPERTY
Delta G
SciTegic.value.DoubleValue
6.680

@<SCITEGIC>MOL_PROPERTY
G
SciTegic.value.DoubleValue
-10.318

@<SCITEGIC>MOL_PROPERTY
E
SciTegic.value.DoubleValue
-31.010

@<SCITEGIC>MOL_PROPERTY
-TS
SciTegic.value.DoubleValue
20.692

@<SCITEGIC>MOL_PROPERTY
U+W
SciTegic.value.DoubleValue
-48.895

@<SCITEGIC>MOL_PROPERTY
U
SciTegic.value.DoubleValue
13.163

@<SCITEGIC>MOL_PROPERTY
W
SciTegic.value.DoubleValue
-62.058

@<SCITEGIC>MOL_PROPERTY
W(PB)
SciTegic.value.DoubleValue
-64.213

@<SCITEGIC>MOL_PROPERTY
W(SA)
SciTegic.value.DoubleValue
2.155

@<SCITEGIC>MOL_PROPERTY
Valence
SciTegic.value.DoubleValue
10.932

@<SCITEGIC>MOL_PROPERTY
Coulomb
SciTegic.value.DoubleValue
1.922

@<SCITEGIC>MOL_PROPERTY
VdW
SciTegic.value.DoubleValue
0.309

@<SCITEGIC>MOL_PROPERTY
VdW6
SciTegic.value.DoubleValue
-10.319

@<SCITEGIC>MOL_PROPERTY
VdW12
SciTegic.value.DoubleValue
10.628

@<SCITEGIC>MOL_PROPERTY
Bond
SciTegic.value.DoubleValue
0.254

@<SCITEGIC>MOL_PROPERTY
Angle
SciTegic.value.DoubleValue
3.841

@<SCITEGIC>MOL_PROPERTY
Pdih
SciTegic.value.DoubleValue
6.835

@<SCITEGIC>MOL_PROPERTY
Idih
SciTegic.value.DoubleValue
0.001

@<SCITEGIC>MOL_PROPERTY
Tether
SciTegic.value.DoubleValue
0.000

@<TRIPOS>MOLECULE
guest-s21_vm2.mol2 : vm2 ligand conformer 68
          22          21           1
SMALL
USER_CHARGES
 
@<TRIPOS>ATOM
       1    C1      20.310635   19.153389   25.444109 C.2        1 MOL1         0.6145
       2    O1      21.182752   19.991312   25.327074 O.co2      1 MOL1        -0.6735
       3    O2      19.760703   18.897017   26.497055 O.co2      1 MOL1        -0.6735
       4    C2      19.867596   18.394905   24.198257 C.3        1 MOL1        -0.1985
       5    H1      19.564749   17.386733   24.504988 H          1 MOL1         0.0740
       6    H2      20.739514   18.280129   23.547202 H          1 MOL1         0.0740
       7    C3      18.701582   19.095479   23.452051 C.3        1 MOL1        -0.1882
       8    H3      17.847667   19.151105   24.141284 H          1 MOL1         0.0742
       9    H4      18.966395   20.134618   23.214802 H          1 MOL1         0.0742
      10    C4      18.254731   18.349069   22.170587 C.3        1 MOL1        -0.1880
      11    H5      17.166003   18.464061   22.079096 H          1 MOL1         0.0742
      12    H6      18.428984   17.269823   22.278558 H          1 MOL1         0.0742
      13    C5      18.882389   18.859740   20.846592 C.3        1 MOL1        -0.1880
      14    H7      18.380306   18.331162   20.024761 H          1 MOL1         0.0742
      15    H8      18.643916   19.922348   20.702285 H          1 MOL1         0.0742
      16    C6      20.405716   18.628453   20.693955 C.3        1 MOL1        -0.1856
      17    H9      20.622068   18.417191   19.637651 H          1 MOL1         0.0742
      18    H10     20.713884   17.732851   21.249634 H          1 MOL1         0.0742
      19    C7      21.253898   19.849636   21.114319 C.3        1 MOL1        -0.2871
      20    H11     21.005424   20.726239   20.502211 H          1 MOL1         0.0754
      21    H12     22.322746   19.639000   20.980928 H          1 MOL1         0.0754
      22    H13     21.094868   20.116858   22.165322 H          1 MOL1         0.0754
@<TRIPOS>BOND
    1     1     2    1
    2     1     3    2
    3     1     4    1
    4     4     5    1
    5     4     6    1
    6     4     7    1
    7     7     8    1
    8     7     9    1
    9     7    10    1
   10    10    11    1
   11    10    12    1
   12    10    13    1
   13    13    14    1
   14    13    15    1
   15    13    16    1
   16    16    17    1
   17    16    18    1
   18    16    19    1
   19    19    20    1
   20    19    21    1
   21    19    22    1
@<TRIPOS>SUBSTRUCTURE
       1 MOL1            1 RESIDUE      1      MOL     
@<SCITEGIC>MOL_PROPERTY
VM2 Rank
SciTegic.value.IntegerValue
68

@<SCITEGIC>MOL_PROPERTY
Conf_Id
SciTegic.value.IntegerValue
350

@<SCITEGIC>MOL_PROPERTY
Probability
SciTegic.value.DoubleValue
0.00

@<SCITEGIC>MOL_PROPERTY
Sum Probability
SciTegic.value.DoubleValue
100.00

@<SCITEGIC>MOL_PROPERTY
Delta G
SciTegic.value.DoubleValue
7.512

@<SCITEGIC>MOL_PROPERTY
G
SciTegic.value.DoubleValue
-9.486

@<SCITEGIC>MOL_PROPERTY
E
SciTegic.value.DoubleValue
-29.954

@<SCITEGIC>MOL_PROPERTY
-TS
SciTegic.value.DoubleValue
20.468

@<SCITEGIC>MOL_PROPERTY
U+W
SciTegic.value.DoubleValue
-47.839

@<SCITEGIC>MOL_PROPERTY
U
SciTegic.value.DoubleValue
13.811

@<SCITEGIC>MOL_PROPERTY
W
SciTegic.value.DoubleValue
-61.649

@<SCITEGIC>MOL_PROPERTY
W(PB)
SciTegic.value.DoubleValue
-63.847

@<SCITEGIC>MOL_PROPERTY
W(SA)
SciTegic.value.DoubleValue
2.198

@<SCITEGIC>MOL_PROPERTY
Valence
SciTegic.value.DoubleValue
12.676

@<SCITEGIC>MOL_PROPERTY
Coulomb
SciTegic.value.DoubleValue
0.619

@<SCITEGIC>MOL_PROPERTY
VdW
SciTegic.value.DoubleValue
0.516

@<SCITEGIC>MOL_PROPERTY
VdW6
SciTegic.value.DoubleValue
-9.538

@<SCITEGIC>MOL_PROPERTY
VdW12
SciTegic.value.DoubleValue
10.053

@<SCITEGIC>MOL_PROPERTY
Bond
SciTegic.value.DoubleValue
0.234

@<SCITEGIC>MOL_PROPERTY
Angle
SciTegic.value.DoubleValue
3.707

@<SCITEGIC>MOL_PROPERTY
Pdih
SciTegic.value.DoubleValue
8.734

@<SCITEGIC>MOL_PROPERTY
Idih
SciTegic.value.DoubleValue
0.001

@<SCITEGIC>MOL_PROPERTY
Tether
SciTegic.value.DoubleValue
0.000

@<TRIPOS>MOLECULE
guest-s21_vm2.mol2 : vm2 ligand conformer 69
          22          21           1
SMALL
USER_CHARGES
 
@<TRIPOS>ATOM
       1    C1      19.838489   18.765587   25.243208 C.2        1 MOL1         0.6145
       2    O1      18.676385   18.680804   25.588906 O.co2      1 MOL1        -0.6735
       3    O2      20.620310   17.835714   25.279350 O.co2      1 MOL1        -0.6735
       4    C2      20.360691   20.126676   24.793131 C.3        1 MOL1        -0.1985
       5    H1      21.277782   20.319129   25.362142 H          1 MOL1         0.0740
       6    H2      19.639286   20.895707   25.094519 H          1 MOL1         0.0740
       7    C3      20.669804   20.246397   23.274630 C.3        1 MOL1        -0.1882
       8    H3      21.217503   21.185366   23.118195 H          1 MOL1         0.0742
       9    H4      21.351890   19.442110   22.971430 H          1 MOL1         0.0742
      10    C4      19.408679   20.271567   22.371728 C.3        1 MOL1        -0.1880
      11    H5      19.633466   20.825223   21.449983 H          1 MOL1         0.0742
      12    H6      18.623928   20.850258   22.877736 H          1 MOL1         0.0742
      13    C5      18.848031   18.874206   21.996764 C.3        1 MOL1        -0.1880
      14    H7      19.065955   18.140609   22.782490 H          1 MOL1         0.0742
      15    H8      17.752872   18.946286   21.953107 H          1 MOL1         0.0742
      16    C6      19.338333   18.334855   20.630362 C.3        1 MOL1        -0.1856
      17    H9      19.048811   19.032630   19.832595 H          1 MOL1         0.0742
      18    H10     18.815891   17.391773   20.418867 H          1 MOL1         0.0742
      19    C7      20.859278   18.083194   20.565920 C.3        1 MOL1        -0.2871
      20    H11     21.419756   19.023555   20.639384 H          1 MOL1         0.0754
      21    H12     21.130620   17.607786   19.614578 H          1 MOL1         0.0754
      22    H13     21.182281   17.421515   21.380332 H          1 MOL1         0.0754
@<TRIPOS>BOND
    1     1     2    1
    2     1     3    2
    3     1     4    1
    4     4     5    1
    5     4     6    1
    6     4     7    1
    7     7     8    1
    8     7     9    1
    9     7    10    1
   10    10    11    1
   11    10    12    1
   12    10    13    1
   13    13    14    1
   14    13    15    1
   15    13    16    1
   16    16    17    1
   17    16    18    1
   18    16    19    1
   19    19    20    1
   20    19    21    1
   21    19    22    1
@<TRIPOS>SUBSTRUCTURE
       1 MOL1            1 RESIDUE      1      MOL     
@<SCITEGIC>MOL_PROPERTY
VM2 Rank
SciTegic.value.IntegerValue
69

@<SCITEGIC>MOL_PROPERTY
Conf_Id
SciTegic.value.IntegerValue
171

@<SCITEGIC>MOL_PROPERTY
Probability
SciTegic.value.DoubleValue
0.00

@<SCITEGIC>MOL_PROPERTY
Sum Probability
SciTegic.value.DoubleValue
100.00

@<SCITEGIC>MOL_PROPERTY
Delta G
SciTegic.value.DoubleValue
8.167

@<SCITEGIC>MOL_PROPERTY
G
SciTegic.value.DoubleValue
-8.831

@<SCITEGIC>MOL_PROPERTY
E
SciTegic.value.DoubleValue
-29.228

@<SCITEGIC>MOL_PROPERTY
-TS
SciTegic.value.DoubleValue
20.397

@<SCITEGIC>MOL_PROPERTY
U+W
SciTegic.value.DoubleValue
-47.113

@<SCITEGIC>MOL_PROPERTY
U
SciTegic.value.DoubleValue
15.357

@<SCITEGIC>MOL_PROPERTY
W
SciTegic.value.DoubleValue
-62.470

@<SCITEGIC>MOL_PROPERTY
W(PB)
SciTegic.value.DoubleValue
-64.647

@<SCITEGIC>MOL_PROPERTY
W(SA)
SciTegic.value.DoubleValue
2.177

@<SCITEGIC>MOL_PROPERTY
Valence
SciTegic.value.DoubleValue
12.194

@<SCITEGIC>MOL_PROPERTY
Coulomb
SciTegic.value.DoubleValue
2.676

@<SCITEGIC>MOL_PROPERTY
VdW
SciTegic.value.DoubleValue
0.488

@<SCITEGIC>MOL_PROPERTY
VdW6
SciTegic.value.DoubleValue
-10.169

@<SCITEGIC>MOL_PROPERTY
VdW12
SciTegic.value.DoubleValue
10.657

@<SCITEGIC>MOL_PROPERTY
Bond
SciTegic.value.DoubleValue
0.265

@<SCITEGIC>MOL_PROPERTY
Angle
SciTegic.value.DoubleValue
3.626

@<SCITEGIC>MOL_PROPERTY
Pdih
SciTegic.value.DoubleValue
8.299

@<SCITEGIC>MOL_PROPERTY
Idih
SciTegic.value.DoubleValue
0.004

@<SCITEGIC>MOL_PROPERTY
Tether
SciTegic.value.DoubleValue
0.000

@<TRIPOS>MOLECULE
guest-s21_vm2.mol2 : vm2 ligand conformer 70
          22          21           1
SMALL
USER_CHARGES
 
@<TRIPOS>ATOM
       1    C1      20.326027   18.844514   24.891574 C.2        1 MOL1         0.6145
       2    O1      20.809637   19.914188   25.208227 O.co2      1 MOL1        -0.6735
       3    O2      20.972205   17.818401   24.812178 O.co2      1 MOL1        -0.6735
       4    C2      18.810561   18.749890   24.707474 C.3        1 MOL1        -0.1985
       5    H1      18.382263   18.761582   25.716241 H          1 MOL1         0.0740
       6    H2      18.563701   17.772962   24.274935 H          1 MOL1         0.0740
       7    C3      18.157989   19.887999   23.871937 C.3        1 MOL1        -0.1882
       8    H3      17.101802   19.958296   24.165011 H          1 MOL1         0.0742
       9    H4      18.605846   20.854817   24.140300 H          1 MOL1         0.0742
      10    C4      18.202965   19.693994   22.334518 C.3        1 MOL1        -0.1880
      11    H5      17.631764   20.516144   21.882033 H          1 MOL1         0.0742
      12    H6      17.668944   18.775125   22.056204 H          1 MOL1         0.0742
      13    C5      19.622778   19.700973   21.715912 C.3        1 MOL1        -0.1880
      14    H7      19.596704   20.280157   20.782827 H          1 MOL1         0.0742
      15    H8      20.324294   20.225054   22.379438 H          1 MOL1         0.0742
      16    C6      20.144446   18.283695   21.389735 C.3        1 MOL1        -0.1856
      17    H9      19.473404   17.801483   20.665756 H          1 MOL1         0.0742
      18    H10     20.136093   17.658690   22.291325 H          1 MOL1         0.0742
      19    C7      21.573393   18.325345   20.812445 C.3        1 MOL1        -0.2871
      20    H11     22.272348   18.766793   21.535213 H          1 MOL1         0.0754
      21    H12     21.609052   18.920693   19.890803 H          1 MOL1         0.0754
      22    H13     21.924958   17.312445   20.577342 H          1 MOL1         0.0754
@<TRIPOS>BOND
    1     1     2    1
    2     1     3    2
    3     1     4    1
    4     4     5    1
    5     4     6    1
    6     4     7    1
    7     7     8    1
    8     7     9    1
    9     7    10    1
   10    10    11    1
   11    10    12    1
   12    10    13    1
   13    13    14    1
   14    13    15    1
   15    13    16    1
   16    16    17    1
   17    16    18    1
   18    16    19    1
   19    19    20    1
   20    19    21    1
   21    19    22    1
@<TRIPOS>SUBSTRUCTURE
       1 MOL1            1 RESIDUE      1      MOL     
@<SCITEGIC>MOL_PROPERTY
VM2 Rank
SciTegic.value.IntegerValue
70

@<SCITEGIC>MOL_PROPERTY
Conf_Id
SciTegic.value.IntegerValue
219

@<SCITEGIC>MOL_PROPERTY
Probability
SciTegic.value.DoubleValue
0.00

@<SCITEGIC>MOL_PROPERTY
Sum Probability
SciTegic.value.DoubleValue
100.00

@<SCITEGIC>MOL_PROPERTY
Delta G
SciTegic.value.DoubleValue
8.527

@<SCITEGIC>MOL_PROPERTY
G
SciTegic.value.DoubleValue
-8.471

@<SCITEGIC>MOL_PROPERTY
E
SciTegic.value.DoubleValue
-29.145

@<SCITEGIC>MOL_PROPERTY
-TS
SciTegic.value.DoubleValue
20.675

@<SCITEGIC>MOL_PROPERTY
U+W
SciTegic.value.DoubleValue
-47.030

@<SCITEGIC>MOL_PROPERTY
U
SciTegic.value.DoubleValue
15.739

@<SCITEGIC>MOL_PROPERTY
W
SciTegic.value.DoubleValue
-62.769

@<SCITEGIC>MOL_PROPERTY
W(PB)
SciTegic.value.DoubleValue
-64.934

@<SCITEGIC>MOL_PROPERTY
W(SA)
SciTegic.value.DoubleValue
2.164

@<SCITEGIC>MOL_PROPERTY
Valence
SciTegic.value.DoubleValue
12.167

@<SCITEGIC>MOL_PROPERTY
Coulomb
SciTegic.value.DoubleValue
3.363

@<SCITEGIC>MOL_PROPERTY
VdW
SciTegic.value.DoubleValue
0.210

@<SCITEGIC>MOL_PROPERTY
VdW6
SciTegic.value.DoubleValue
-10.463

@<SCITEGIC>MOL_PROPERTY
VdW12
SciTegic.value.DoubleValue
10.673

@<SCITEGIC>MOL_PROPERTY
Bond
SciTegic.value.DoubleValue
0.233

@<SCITEGIC>MOL_PROPERTY
Angle
SciTegic.value.DoubleValue
3.823

@<SCITEGIC>MOL_PROPERTY
Pdih
SciTegic.value.DoubleValue
8.088

@<SCITEGIC>MOL_PROPERTY
Idih
SciTegic.value.DoubleValue
0.023

@<SCITEGIC>MOL_PROPERTY
Tether
SciTegic.value.DoubleValue
0.000

@<TRIPOS>MOLECULE
guest-s21_vm2.mol2 : vm2 ligand conformer 71
          22          21           1
SMALL
USER_CHARGES
 
@<TRIPOS>ATOM
       1    C1      20.343566   19.323943   24.867807 C.2        1 MOL1         0.6145
       2    O1      20.749108   18.258356   25.290192 O.co2      1 MOL1        -0.6735
       3    O2      21.062433   20.287506   24.690231 O.co2      1 MOL1        -0.6735
       4    C2      18.838355   19.510092   24.669919 C.3        1 MOL1        -0.1985
       5    H1      18.661698   20.455112   24.142520 H          1 MOL1         0.0740
       6    H2      18.414012   19.628873   25.673418 H          1 MOL1         0.0740
       7    C3      18.101654   18.345861   23.948049 C.3        1 MOL1        -0.1882
       8    H3      18.478923   17.380105   24.311803 H          1 MOL1         0.0742
       9    H4      17.044217   18.381792   24.242843 H          1 MOL1         0.0742
      10    C4      18.155083   18.383916   22.399173 C.3        1 MOL1        -0.1880
      11    H5      17.688371   19.307381   22.029917 H          1 MOL1         0.0742
      12    H6      17.523919   17.565020   22.027711 H          1 MOL1         0.0742
      13    C5      19.568379   18.212776   21.789339 C.3        1 MOL1        -0.1880
      14    H7      20.232263   17.706801   22.503692 H          1 MOL1         0.0742
      15    H8      19.496837   17.548087   20.917644 H          1 MOL1         0.0742
      16    C6      20.190677   19.549344   21.327236 C.3        1 MOL1        -0.1856
      17    H9      20.231041   20.258951   22.162935 H          1 MOL1         0.0742
      18    H10     19.553955   20.005560   20.556896 H          1 MOL1         0.0742
      19    C7      21.610746   19.347207   20.762053 C.3        1 MOL1        -0.2871
      20    H11     21.599719   18.663023   19.903621 H          1 MOL1         0.0754
      21    H12     22.278283   18.929365   21.527305 H          1 MOL1         0.0754
      22    H13     22.034253   20.303768   20.429678 H          1 MOL1         0.0754
@<TRIPOS>BOND
    1     1     2    1
    2     1     3    2
    3     1     4    1
    4     4     5    1
    5     4     6    1
    6     4     7    1
    7     7     8    1
    8     7     9    1
    9     7    10    1
   10    10    11    1
   11    10    12    1
   12    10    13    1
   13    13    14    1
   14    13    15    1
   15    13    16    1
   16    16    17    1
   17    16    18    1
   18    16    19    1
   19    19    20    1
   20    19    21    1
   21    19    22    1
@<TRIPOS>SUBSTRUCTURE
       1 MOL1            1 RESIDUE      1      MOL     
@<SCITEGIC>MOL_PROPERTY
VM2 Rank
SciTegic.value.IntegerValue
71

@<SCITEGIC>MOL_PROPERTY
Conf_Id
SciTegic.value.IntegerValue
254

@<SCITEGIC>MOL_PROPERTY
Probability
SciTegic.value.DoubleValue
0.00

@<SCITEGIC>MOL_PROPERTY
Sum Probability
SciTegic.value.DoubleValue
100.00

@<SCITEGIC>MOL_PROPERTY
Delta G
SciTegic.value.DoubleValue
8.582

@<SCITEGIC>MOL_PROPERTY
G
SciTegic.value.DoubleValue
-8.416

@<SCITEGIC>MOL_PROPERTY
E
SciTegic.value.DoubleValue
-29.090

@<SCITEGIC>MOL_PROPERTY
-TS
SciTegic.value.DoubleValue
20.675

@<SCITEGIC>MOL_PROPERTY
U+W
SciTegic.value.DoubleValue
-46.975

@<SCITEGIC>MOL_PROPERTY
U
SciTegic.value.DoubleValue
15.738

@<SCITEGIC>MOL_PROPERTY
W
SciTegic.value.DoubleValue
-62.713

@<SCITEGIC>MOL_PROPERTY
W(PB)
SciTegic.value.DoubleValue
-64.888

@<SCITEGIC>MOL_PROPERTY
W(SA)
SciTegic.value.DoubleValue
2.174

@<SCITEGIC>MOL_PROPERTY
Valence
SciTegic.value.DoubleValue
12.166

@<SCITEGIC>MOL_PROPERTY
Coulomb
SciTegic.value.DoubleValue
3.362

@<SCITEGIC>MOL_PROPERTY
VdW
SciTegic.value.DoubleValue
0.209

@<SCITEGIC>MOL_PROPERTY
VdW6
SciTegic.value.DoubleValue
-10.463

@<SCITEGIC>MOL_PROPERTY
VdW12
SciTegic.value.DoubleValue
10.673

@<SCITEGIC>MOL_PROPERTY
Bond
SciTegic.value.DoubleValue
0.233

@<SCITEGIC>MOL_PROPERTY
Angle
SciTegic.value.DoubleValue
3.823

@<SCITEGIC>MOL_PROPERTY
Pdih
SciTegic.value.DoubleValue
8.088

@<SCITEGIC>MOL_PROPERTY
Idih
SciTegic.value.DoubleValue
0.022

@<SCITEGIC>MOL_PROPERTY
Tether
SciTegic.value.DoubleValue
0.000

@<TRIPOS>MOLECULE
guest-s21_vm2.mol2 : vm2 ligand conformer 72
          22          21           1
SMALL
USER_CHARGES
 
@<TRIPOS>ATOM
       1    C1      20.327519   19.123309   24.933754 C.2        1 MOL1         0.6145
       2    O1      20.942771   20.170424   24.983451 O.co2      1 MOL1        -0.6735
       3    O2      20.837953   18.036147   25.121184 O.co2      1 MOL1        -0.6735
       4    C2      18.809590   19.192561   24.784415 C.3        1 MOL1        -0.1985
       5    H1      18.458360   19.901823   25.543053 H          1 MOL1         0.0740
       6    H2      18.381254   18.218123   25.048123 H          1 MOL1         0.0740
       7    C3      18.294558   19.652878   23.391151 C.3        1 MOL1        -0.1882
       8    H3      17.284226   20.059702   23.532580 H          1 MOL1         0.0742
       9    H4      18.894031   20.489677   23.014694 H          1 MOL1         0.0742
      10    C4      18.187895   18.523080   22.335668 C.3        1 MOL1        -0.1880
      11    H5      17.601933   18.892389   21.483097 H          1 MOL1         0.0742
      12    H6      17.595595   17.703905   22.765566 H          1 MOL1         0.0742
      13    C5      19.520419   17.937088   21.800827 C.3        1 MOL1        -0.1880
      14    H7      20.159291   17.592307   22.622867 H          1 MOL1         0.0742
      15    H8      19.264783   17.030728   21.235320 H          1 MOL1         0.0742
      16    C6      20.308677   18.868366   20.844905 C.3        1 MOL1        -0.1856
      17    H9      19.620019   19.518920   20.288764 H          1 MOL1         0.0742
      18    H10     20.810741   18.243876   20.093131 H          1 MOL1         0.0742
      19    C7      21.390619   19.715146   21.548645 C.3        1 MOL1        -0.2871
      20    H11     20.953946   20.441324   22.242091 H          1 MOL1         0.0754
      21    H12     21.980154   20.274867   20.811371 H          1 MOL1         0.0754
      22    H13     22.079704   19.077510   22.117939 H          1 MOL1         0.0754
@<TRIPOS>BOND
    1     1     2    1
    2     1     3    2
    3     1     4    1
    4     4     5    1
    5     4     6    1
    6     4     7    1
    7     7     8    1
    8     7     9    1
    9     7    10    1
   10    10    11    1
   11    10    12    1
   12    10    13    1
   13    13    14    1
   14    13    15    1
   15    13    16    1
   16    16    17    1
   17    16    18    1
   18    16    19    1
   19    19    20    1
   20    19    21    1
   21    19    22    1
@<TRIPOS>SUBSTRUCTURE
       1 MOL1            1 RESIDUE      1      MOL     
@<SCITEGIC>MOL_PROPERTY
VM2 Rank
SciTegic.value.IntegerValue
72

@<SCITEGIC>MOL_PROPERTY
Conf_Id
SciTegic.value.IntegerValue
155

@<SCITEGIC>MOL_PROPERTY
Probability
SciTegic.value.DoubleValue
0.00

@<SCITEGIC>MOL_PROPERTY
Sum Probability
SciTegic.value.DoubleValue
100.00

@<SCITEGIC>MOL_PROPERTY
Delta G
SciTegic.value.DoubleValue
9.780

@<SCITEGIC>MOL_PROPERTY
G
SciTegic.value.DoubleValue
-7.218

@<SCITEGIC>MOL_PROPERTY
E
SciTegic.value.DoubleValue
-27.829

@<SCITEGIC>MOL_PROPERTY
-TS
SciTegic.value.DoubleValue
20.611

@<SCITEGIC>MOL_PROPERTY
U+W
SciTegic.value.DoubleValue
-45.714

@<SCITEGIC>MOL_PROPERTY
U
SciTegic.value.DoubleValue
16.808

@<SCITEGIC>MOL_PROPERTY
W
SciTegic.value.DoubleValue
-62.522

@<SCITEGIC>MOL_PROPERTY
W(PB)
SciTegic.value.DoubleValue
-64.649

@<SCITEGIC>MOL_PROPERTY
W(SA)
SciTegic.value.DoubleValue
2.127

@<SCITEGIC>MOL_PROPERTY
Valence
SciTegic.value.DoubleValue
13.059

@<SCITEGIC>MOL_PROPERTY
Coulomb
SciTegic.value.DoubleValue
3.862

@<SCITEGIC>MOL_PROPERTY
VdW
SciTegic.value.DoubleValue
-0.113

@<SCITEGIC>MOL_PROPERTY
VdW6
SciTegic.value.DoubleValue
-11.028

@<SCITEGIC>MOL_PROPERTY
VdW12
SciTegic.value.DoubleValue
10.915

@<SCITEGIC>MOL_PROPERTY
Bond
SciTegic.value.DoubleValue
0.270

@<SCITEGIC>MOL_PROPERTY
Angle
SciTegic.value.DoubleValue
4.723

@<SCITEGIC>MOL_PROPERTY
Pdih
SciTegic.value.DoubleValue
8.032

@<SCITEGIC>MOL_PROPERTY
Idih
SciTegic.value.DoubleValue
0.034

@<SCITEGIC>MOL_PROPERTY
Tether
SciTegic.value.DoubleValue
0.000

