VeraChem MOL file


 22 21  0  0  0  0  0  0  0  0999 V2000     
   19.8314   19.1341   26.1875 C   0  0  0  0  0  0  0  0  0  0  0  0
   20.0586   20.2372   26.6435 O   0  5  0  0  0  0  0  0  0  0  0  0
   20.1746   18.0998   26.7250 O   0  0  0  0  0  0  0  0  0  0  0  0
   19.0946   19.0434   24.8559 C   0  0  0  0  0  0  0  0  0  0  0  0
   18.3980   19.8881   24.7937 H   0  0  0  0  0  0  0  0  0  0  0  0
   18.4928   18.1266   24.8613 H   0  0  0  0  0  0  0  0  0  0  0  0
   20.0506   19.0481   23.6377 C   0  0  0  0  0  0  0  0  0  0  0  0
   20.6549   19.9658   23.6541 H   0  0  0  0  0  0  0  0  0  0  0  0
   20.7496   18.2043   23.7217 H   0  0  0  0  0  0  0  0  0  0  0  0
   19.2808   18.9555   22.3025 C   0  0  0  0  0  0  0  0  0  0  0  0
   18.5822   19.7997   22.2223 H   0  0  0  0  0  0  0  0  0  0  0  0
   18.6768   18.0378   22.2899 H   0  0  0  0  0  0  0  0  0  0  0  0
   20.2363   18.9603   21.0900 C   0  0  0  0  0  0  0  0  0  0  0  0
   20.8405   19.8778   21.1023 H   0  0  0  0  0  0  0  0  0  0  0  0
   20.9351   18.1162   21.1698 H   0  0  0  0  0  0  0  0  0  0  0  0
   19.4677   18.8679   19.7552 C   0  0  0  0  0  0  0  0  0  0  0  0
   18.7690   19.7118   19.6707 H   0  0  0  0  0  0  0  0  0  0  0  0
   18.8634   17.9502   19.7383 H   0  0  0  0  0  0  0  0  0  0  0  0
   20.4254   18.8729   18.5468 C   0  0  0  0  0  0  0  0  0  0  0  0
   21.1157   18.0202   18.5893 H   0  0  0  0  0  0  0  0  0  0  0  0
   21.0206   19.7950   18.5212 H   0  0  0  0  0  0  0  0  0  0  0  0
   19.8624   18.8067   17.6067 H   0  0  0  0  0  0  0  0  0  0  0  0
  1  2  1  0  0  0  0
  1  3  2  0  0  0  0
  1  4  1  0  0  0  0
  4  5  1  0  0  0  0
  4  6  1  0  0  0  0
  4  7  1  0  0  0  0
  7  8  1  0  0  0  0
  7  9  1  0  0  0  0
  7 10  1  0  0  0  0
 10 11  1  0  0  0  0
 10 12  1  0  0  0  0
 10 13  1  0  0  0  0
 13 14  1  0  0  0  0
 13 15  1  0  0  0  0
 13 16  1  0  0  0  0
 16 17  1  0  0  0  0
 16 18  1  0  0  0  0
 16 19  1  0  0  0  0
 19 20  1  0  0  0  0
 19 21  1  0  0  0  0
 19 22  1  0  0  0  0
M  END
> <VM2 Rank>
1

> <Conf_Id>
236

> <Probability>
33.65

> <Sum Probability>
33.65

> <Delta G>
0.000

> <G>
-16.998

> <E>
-36.566

> <-TS>
19.568

> <U+W>
-54.450

> <U>
5.779

> <W>
-60.230

> <W(PB)>
-62.557

> <W(SA)>
2.328

> <Valence>
7.101

> <Coulomb>
-2.079

> <VdW>
0.757

> <VdW6>
-6.496

> <VdW12>
7.253

> <Bond>
0.100

> <Angle>
2.262

> <Pdih>
4.739

> <Idih>
0.001

> <Tether>
0.000

$$$$
VeraChem MOL file


 22 21  0  0  0  0  0  0  0  0999 V2000     
   19.7291   18.8549   25.9655 C   0  0  0  0  0  0  0  0  0  0  0  0
   19.2130   19.6430   26.7331 O   0  5  0  0  0  0  0  0  0  0  0  0
   20.5233   18.0022   26.3100 O   0  0  0  0  0  0  0  0  0  0  0  0
   19.3784   18.9568   24.4854 C   0  0  0  0  0  0  0  0  0  0  0  0
   18.3434   19.3100   24.4046 H   0  0  0  0  0  0  0  0  0  0  0  0
   19.4111   17.9455   24.0649 H   0  0  0  0  0  0  0  0  0  0  0  0
   20.3291   19.9035   23.7076 C   0  0  0  0  0  0  0  0  0  0  0  0
   20.3426   20.8805   24.2104 H   0  0  0  0  0  0  0  0  0  0  0  0
   21.3556   19.5148   23.7577 H   0  0  0  0  0  0  0  0  0  0  0  0
   19.9205   20.1122   22.2300 C   0  0  0  0  0  0  0  0  0  0  0  0
   20.5731   20.8805   21.7933 H   0  0  0  0  0  0  0  0  0  0  0  0
   18.8976   20.5105   22.1839 H   0  0  0  0  0  0  0  0  0  0  0  0
   20.0179   18.8260   21.3776 C   0  0  0  0  0  0  0  0  0  0  0  0
   21.0269   18.4008   21.4683 H   0  0  0  0  0  0  0  0  0  0  0  0
   19.3163   18.0713   21.7558 H   0  0  0  0  0  0  0  0  0  0  0  0
   19.7076   19.1023   19.8915 C   0  0  0  0  0  0  0  0  0  0  0  0
   20.4100   19.8506   19.4987 H   0  0  0  0  0  0  0  0  0  0  0  0
   18.6997   19.5298   19.7970 H   0  0  0  0  0  0  0  0  0  0  0  0
   19.8011   17.8181   19.0433 C   0  0  0  0  0  0  0  0  0  0  0  0
   20.8090   17.3858   19.0950 H   0  0  0  0  0  0  0  0  0  0  0  0
   19.5781   18.0329   17.9901 H   0  0  0  0  0  0  0  0  0  0  0  0
   19.0856   17.0628   19.3940 H   0  0  0  0  0  0  0  0  0  0  0  0
  1  2  1  0  0  0  0
  1  3  2  0  0  0  0
  1  4  1  0  0  0  0
  4  5  1  0  0  0  0
  4  6  1  0  0  0  0
  4  7  1  0  0  0  0
  7  8  1  0  0  0  0
  7  9  1  0  0  0  0
  7 10  1  0  0  0  0
 10 11  1  0  0  0  0
 10 12  1  0  0  0  0
 10 13  1  0  0  0  0
 13 14  1  0  0  0  0
 13 15  1  0  0  0  0
 13 16  1  0  0  0  0
 16 17  1  0  0  0  0
 16 18  1  0  0  0  0
 16 19  1  0  0  0  0
 19 20  1  0  0  0  0
 19 21  1  0  0  0  0
 19 22  1  0  0  0  0
M  END
> <VM2 Rank>
2

> <Conf_Id>
121

> <Probability>
8.69

> <Sum Probability>
42.34

> <Delta G>
0.807

> <G>
-16.191

> <E>
-35.868

> <-TS>
19.678

> <U+W>
-53.753

> <U>
6.782

> <W>
-60.535

> <W(PB)>
-62.847

> <W(SA)>
2.311

> <Valence>
7.621

> <Coulomb>
-1.711

> <VdW>
0.872

> <VdW6>
-7.188

> <VdW12>
8.060

> <Bond>
0.142

> <Angle>
2.504

> <Pdih>
4.974

> <Idih>
0.001

> <Tether>
0.000

$$$$
VeraChem MOL file


 22 21  0  0  0  0  0  0  0  0999 V2000     
   20.1334   19.1302   25.9560 C   0  0  0  0  0  0  0  0  0  0  0  0
   19.6139   19.9160   26.7236 O   0  5  0  0  0  0  0  0  0  0  0  0
   20.6477   18.0868   26.3071 O   0  0  0  0  0  0  0  0  0  0  0  0
   20.1190   19.4612   24.4679 C   0  0  0  0  0  0  0  0  0  0  0  0
   21.0341   19.0507   24.0264 H   0  0  0  0  0  0  0  0  0  0  0  0
   20.1665   20.5515   24.3614 H   0  0  0  0  0  0  0  0  0  0  0  0
   18.8654   18.9069   23.7423 C   0  0  0  0  0  0  0  0  0  0  0  0
   18.8530   17.8107   23.8170 H   0  0  0  0  0  0  0  0  0  0  0  0
   17.9681   19.2636   24.2667 H   0  0  0  0  0  0  0  0  0  0  0  0
   18.7730   19.3309   22.2572 C   0  0  0  0  0  0  0  0  0  0  0  0
   18.7755   20.4273   22.1868 H   0  0  0  0  0  0  0  0  0  0  0  0
   17.8054   18.9961   21.8589 H   0  0  0  0  0  0  0  0  0  0  0  0
   19.9060   18.7497   21.3802 C   0  0  0  0  0  0  0  0  0  0  0  0
   20.8770   19.1337   21.7189 H   0  0  0  0  0  0  0  0  0  0  0  0
   19.9349   17.6574   21.4940 H   0  0  0  0  0  0  0  0  0  0  0  0
   19.7144   19.1071   19.8913 C   0  0  0  0  0  0  0  0  0  0  0  0
   19.6830   20.1992   19.7738 H   0  0  0  0  0  0  0  0  0  0  0  0
   18.7486   18.7199   19.5380 H   0  0  0  0  0  0  0  0  0  0  0  0
   20.8471   18.5302   19.0184 C   0  0  0  0  0  0  0  0  0  0  0  0
   21.8229   18.9261   19.3291 H   0  0  0  0  0  0  0  0  0  0  0  0
   20.6948   18.7933   17.9636 H   0  0  0  0  0  0  0  0  0  0  0  0
   20.8817   17.4354   19.0932 H   0  0  0  0  0  0  0  0  0  0  0  0
  1  2  1  0  0  0  0
  1  3  2  0  0  0  0
  1  4  1  0  0  0  0
  4  5  1  0  0  0  0
  4  6  1  0  0  0  0
  4  7  1  0  0  0  0
  7  8  1  0  0  0  0
  7  9  1  0  0  0  0
  7 10  1  0  0  0  0
 10 11  1  0  0  0  0
 10 12  1  0  0  0  0
 10 13  1  0  0  0  0
 13 14  1  0  0  0  0
 13 15  1  0  0  0  0
 13 16  1  0  0  0  0
 16 17  1  0  0  0  0
 16 18  1  0  0  0  0
 16 19  1  0  0  0  0
 19 20  1  0  0  0  0
 19 21  1  0  0  0  0
 19 22  1  0  0  0  0
M  END
> <VM2 Rank>
3

> <Conf_Id>
324

> <Probability>
7.79

> <Sum Probability>
50.12

> <Delta G>
0.873

> <G>
-16.125

> <E>
-35.803

> <-TS>
19.677

> <U+W>
-53.688

> <U>
6.782

> <W>
-60.470

> <W(PB)>
-62.789

> <W(SA)>
2.320

> <Valence>
7.621

> <Coulomb>
-1.711

> <VdW>
0.872

> <VdW6>
-7.188

> <VdW12>
8.060

> <Bond>
0.142

> <Angle>
2.504

> <Pdih>
4.974

> <Idih>
0.001

> <Tether>
0.000

$$$$
VeraChem MOL file


 22 21  0  0  0  0  0  0  0  0999 V2000     
   19.9961   19.0328   25.9874 C   0  0  0  0  0  0  0  0  0  0  0  0
   20.3225   20.0799   26.5104 O   0  5  0  0  0  0  0  0  0  0  0  0
   20.4206   17.9476   26.3318 O   0  0  0  0  0  0  0  0  0  0  0  0
   19.0155   19.0853   24.8213 C   0  0  0  0  0  0  0  0  0  0  0  0
   18.3318   19.9263   24.9890 H   0  0  0  0  0  0  0  0  0  0  0  0
   18.4134   18.1690   24.8408 H   0  0  0  0  0  0  0  0  0  0  0  0
   19.7191   19.2328   23.4497 C   0  0  0  0  0  0  0  0  0  0  0  0
   20.3246   20.1496   23.4494 H   0  0  0  0  0  0  0  0  0  0  0  0
   20.4115   18.3915   23.3142 H   0  0  0  0  0  0  0  0  0  0  0  0
   18.7022   19.2788   22.2857 C   0  0  0  0  0  0  0  0  0  0  0  0
   17.9737   20.0779   22.4798 H   0  0  0  0  0  0  0  0  0  0  0  0
   18.1326   18.3399   22.2536 H   0  0  0  0  0  0  0  0  0  0  0  0
   19.3550   19.5357   20.9068 C   0  0  0  0  0  0  0  0  0  0  0  0
   18.5571   19.6779   20.1652 H   0  0  0  0  0  0  0  0  0  0  0  0
   19.9216   20.4764   20.9374 H   0  0  0  0  0  0  0  0  0  0  0  0
   20.2767   18.3874   20.4374 C   0  0  0  0  0  0  0  0  0  0  0  0
   19.7249   17.4375   20.4573 H   0  0  0  0  0  0  0  0  0  0  0  0
   21.1264   18.2792   21.1242 H   0  0  0  0  0  0  0  0  0  0  0  0
   20.8123   18.6387   19.0134 C   0  0  0  0  0  0  0  0  0  0  0  0
   21.4671   17.8168   18.6960 H   0  0  0  0  0  0  0  0  0  0  0  0
   21.3922   19.5699   18.9710 H   0  0  0  0  0  0  0  0  0  0  0  0
   19.9889   18.7140   18.2911 H   0  0  0  0  0  0  0  0  0  0  0  0
  1  2  1  0  0  0  0
  1  3  2  0  0  0  0
  1  4  1  0  0  0  0
  4  5  1  0  0  0  0
  4  6  1  0  0  0  0
  4  7  1  0  0  0  0
  7  8  1  0  0  0  0
  7  9  1  0  0  0  0
  7 10  1  0  0  0  0
 10 11  1  0  0  0  0
 10 12  1  0  0  0  0
 10 13  1  0  0  0  0
 13 14  1  0  0  0  0
 13 15  1  0  0  0  0
 13 16  1  0  0  0  0
 16 17  1  0  0  0  0
 16 18  1  0  0  0  0
 16 19  1  0  0  0  0
 19 20  1  0  0  0  0
 19 21  1  0  0  0  0
 19 22  1  0  0  0  0
M  END
> <VM2 Rank>
4

> <Conf_Id>
132

> <Probability>
7.72

> <Sum Probability>
57.84

> <Delta G>
0.878

> <G>
-16.120

> <E>
-35.794

> <-TS>
19.673

> <U+W>
-53.679

> <U>
7.026

> <W>
-60.705

> <W(PB)>
-63.009

> <W(SA)>
2.304

> <Valence>
7.638

> <Coulomb>
-1.488

> <VdW>
0.877

> <VdW6>
-7.165

> <VdW12>
8.042

> <Bond>
0.134

> <Angle>
2.513

> <Pdih>
4.990

> <Idih>
0.001

> <Tether>
0.000

$$$$
VeraChem MOL file


 22 21  0  0  0  0  0  0  0  0999 V2000     
   19.6004   19.0274   25.9802 C   0  0  0  0  0  0  0  0  0  0  0  0
   19.2262   20.0649   26.4902 O   0  5  0  0  0  0  0  0  0  0  0  0
   19.1946   17.9306   26.3102 O   0  0  0  0  0  0  0  0  0  0  0  0
   20.6207   19.1075   24.8503 C   0  0  0  0  0  0  0  0  0  0  0  0
   21.2468   18.2082   24.8920 H   0  0  0  0  0  0  0  0  0  0  0  0
   21.2743   19.9670   25.0420 H   0  0  0  0  0  0  0  0  0  0  0  0
   19.9632   19.2360   23.4540 C   0  0  0  0  0  0  0  0  0  0  0  0
   19.2996   18.3760   23.2942 H   0  0  0  0  0  0  0  0  0  0  0  0
   19.3330   20.1358   23.4313 H   0  0  0  0  0  0  0  0  0  0  0  0
   21.0198   19.3105   22.3275 C   0  0  0  0  0  0  0  0  0  0  0  0
   21.6157   18.3876   22.3164 H   0  0  0  0  0  0  0  0  0  0  0  0
   21.7187   20.1291   22.5473 H   0  0  0  0  0  0  0  0  0  0  0  0
   20.4104   19.5501   20.9258 C   0  0  0  0  0  0  0  0  0  0  0  0
   19.8177   20.4751   20.9353 H   0  0  0  0  0  0  0  0  0  0  0  0
   21.2303   19.7142   20.2133 H   0  0  0  0  0  0  0  0  0  0  0  0
   19.5377   18.3774   20.4242 C   0  0  0  0  0  0  0  0  0  0  0  0
   18.6671   18.2460   21.0800 H   0  0  0  0  0  0  0  0  0  0  0  0
   20.1140   17.4428   20.4645 H   0  0  0  0  0  0  0  0  0  0  0  0
   19.0471   18.6146   18.9817 C   0  0  0  0  0  0  0  0  0  0  0  0
   19.8936   18.7124   18.2894 H   0  0  0  0  0  0  0  0  0  0  0  0
   18.4441   19.5299   18.9178 H   0  0  0  0  0  0  0  0  0  0  0  0
   18.4266   17.7754   18.6413 H   0  0  0  0  0  0  0  0  0  0  0  0
  1  2  1  0  0  0  0
  1  3  2  0  0  0  0
  1  4  1  0  0  0  0
  4  5  1  0  0  0  0
  4  6  1  0  0  0  0
  4  7  1  0  0  0  0
  7  8  1  0  0  0  0
  7  9  1  0  0  0  0
  7 10  1  0  0  0  0
 10 11  1  0  0  0  0
 10 12  1  0  0  0  0
 10 13  1  0  0  0  0
 13 14  1  0  0  0  0
 13 15  1  0  0  0  0
 13 16  1  0  0  0  0
 16 17  1  0  0  0  0
 16 18  1  0  0  0  0
 16 19  1  0  0  0  0
 19 20  1  0  0  0  0
 19 21  1  0  0  0  0
 19 22  1  0  0  0  0
M  END
> <VM2 Rank>
5

> <Conf_Id>
309

> <Probability>
7.30

> <Sum Probability>
65.14

> <Delta G>
0.911

> <G>
-16.087

> <E>
-35.761

> <-TS>
19.674

> <U+W>
-53.646

> <U>
7.026

> <W>
-60.672

> <W(PB)>
-62.965

> <W(SA)>
2.292

> <Valence>
7.638

> <Coulomb>
-1.488

> <VdW>
0.877

> <VdW6>
-7.165

> <VdW12>
8.042

> <Bond>
0.134

> <Angle>
2.513

> <Pdih>
4.990

> <Idih>
0.001

> <Tether>
0.000

$$$$
VeraChem MOL file


 22 21  0  0  0  0  0  0  0  0999 V2000     
   19.7329   19.2233   26.0947 C   0  0  0  0  0  0  0  0  0  0  0  0
   20.1388   20.2915   26.5078 O   0  5  0  0  0  0  0  0  0  0  0  0
   19.7907   18.1897   26.7310 O   0  0  0  0  0  0  0  0  0  0  0  0
   19.1378   19.1729   24.6920 C   0  0  0  0  0  0  0  0  0  0  0  0
   18.6462   20.1333   24.4957 H   0  0  0  0  0  0  0  0  0  0  0  0
   18.3586   18.4013   24.6799 H   0  0  0  0  0  0  0  0  0  0  0  0
   20.1959   18.8809   23.5996 C   0  0  0  0  0  0  0  0  0  0  0  0
   20.9752   19.6550   23.6329 H   0  0  0  0  0  0  0  0  0  0  0  0
   20.6879   17.9230   23.8182 H   0  0  0  0  0  0  0  0  0  0  0  0
   19.5686   18.8351   22.1893 C   0  0  0  0  0  0  0  0  0  0  0  0
   19.0741   19.7935   21.9842 H   0  0  0  0  0  0  0  0  0  0  0  0
   18.7916   18.0591   22.1583 H   0  0  0  0  0  0  0  0  0  0  0  0
   20.6294   18.5471   21.1021 C   0  0  0  0  0  0  0  0  0  0  0  0
   21.3808   19.3486   21.0965 H   0  0  0  0  0  0  0  0  0  0  0  0
   21.1632   17.6221   21.3596 H   0  0  0  0  0  0  0  0  0  0  0  0
   20.0305   18.3899   19.6851 C   0  0  0  0  0  0  0  0  0  0  0  0
   19.2829   17.5848   19.6854 H   0  0  0  0  0  0  0  0  0  0  0  0
   20.8277   18.0727   18.9988 H   0  0  0  0  0  0  0  0  0  0  0  0
   19.3953   19.6885   19.1424 C   0  0  0  0  0  0  0  0  0  0  0  0
   18.5181   19.9824   19.7321 H   0  0  0  0  0  0  0  0  0  0  0  0
   19.0662   19.5499   18.1044 H   0  0  0  0  0  0  0  0  0  0  0  0
   20.1163   20.5161   19.1607 H   0  0  0  0  0  0  0  0  0  0  0  0
  1  2  1  0  0  0  0
  1  3  2  0  0  0  0
  1  4  1  0  0  0  0
  4  5  1  0  0  0  0
  4  6  1  0  0  0  0
  4  7  1  0  0  0  0
  7  8  1  0  0  0  0
  7  9  1  0  0  0  0
  7 10  1  0  0  0  0
 10 11  1  0  0  0  0
 10 12  1  0  0  0  0
 10 13  1  0  0  0  0
 13 14  1  0  0  0  0
 13 15  1  0  0  0  0
 13 16  1  0  0  0  0
 16 17  1  0  0  0  0
 16 18  1  0  0  0  0
 16 19  1  0  0  0  0
 19 20  1  0  0  0  0
 19 21  1  0  0  0  0
 19 22  1  0  0  0  0
M  END
> <VM2 Rank>
6

> <Conf_Id>
131

> <Probability>
6.71

> <Sum Probability>
71.85

> <Delta G>
0.961

> <G>
-16.037

> <E>
-35.714

> <-TS>
19.677

> <U+W>
-53.599

> <U>
6.751

> <W>
-60.350

> <W(PB)>
-62.659

> <W(SA)>
2.309

> <Valence>
7.602

> <Coulomb>
-1.744

> <VdW>
0.893

> <VdW6>
-7.110

> <VdW12>
8.004

> <Bond>
0.131

> <Angle>
2.489

> <Pdih>
4.982

> <Idih>
0.001

> <Tether>
0.000

$$$$
VeraChem MOL file


 22 21  0  0  0  0  0  0  0  0999 V2000     
   19.7435   19.0279   26.1022 C   0  0  0  0  0  0  0  0  0  0  0  0
   19.6871   20.1073   26.6573 O   0  5  0  0  0  0  0  0  0  0  0  0
   20.2603   18.0443   26.5941 O   0  0  0  0  0  0  0  0  0  0  0  0
   19.1523   18.9065   24.7022 C   0  0  0  0  0  0  0  0  0  0  0  0
   18.2944   19.5863   24.6345 H   0  0  0  0  0  0  0  0  0  0  0  0
   18.7680   17.8865   24.5819 H   0  0  0  0  0  0  0  0  0  0  0  0
   20.1772   19.2267   23.5863 C   0  0  0  0  0  0  0  0  0  0  0  0
   20.5620   20.2460   23.7290 H   0  0  0  0  0  0  0  0  0  0  0  0
   21.0353   18.5461   23.6755 H   0  0  0  0  0  0  0  0  0  0  0  0
   19.5544   19.0967   22.1793 C   0  0  0  0  0  0  0  0  0  0  0  0
   18.6982   19.7795   22.0924 H   0  0  0  0  0  0  0  0  0  0  0  0
   19.1672   18.0776   22.0500 H   0  0  0  0  0  0  0  0  0  0  0  0
   20.5824   19.4137   21.0689 C   0  0  0  0  0  0  0  0  0  0  0  0
   21.0120   20.4079   21.2528 H   0  0  0  0  0  0  0  0  0  0  0  0
   21.4160   18.7000   21.1213 H   0  0  0  0  0  0  0  0  0  0  0  0
   19.9759   19.3966   19.6465 C   0  0  0  0  0  0  0  0  0  0  0  0
   20.7370   19.7448   18.9347 H   0  0  0  0  0  0  0  0  0  0  0  0
   19.1456   20.1139   19.5884 H   0  0  0  0  0  0  0  0  0  0  0  0
   19.4869   17.9994   19.2071 C   0  0  0  0  0  0  0  0  0  0  0  0
   20.2930   17.2584   19.2856 H   0  0  0  0  0  0  0  0  0  0  0  0
   19.1491   18.0219   18.1630 H   0  0  0  0  0  0  0  0  0  0  0  0
   18.6441   17.6583   19.8212 H   0  0  0  0  0  0  0  0  0  0  0  0
  1  2  1  0  0  0  0
  1  3  2  0  0  0  0
  1  4  1  0  0  0  0
  4  5  1  0  0  0  0
  4  6  1  0  0  0  0
  4  7  1  0  0  0  0
  7  8  1  0  0  0  0
  7  9  1  0  0  0  0
  7 10  1  0  0  0  0
 10 11  1  0  0  0  0
 10 12  1  0  0  0  0
 10 13  1  0  0  0  0
 13 14  1  0  0  0  0
 13 15  1  0  0  0  0
 13 16  1  0  0  0  0
 16 17  1  0  0  0  0
 16 18  1  0  0  0  0
 16 19  1  0  0  0  0
 19 20  1  0  0  0  0
 19 21  1  0  0  0  0
 19 22  1  0  0  0  0
M  END
> <VM2 Rank>
7

> <Conf_Id>
99

> <Probability>
6.33

> <Sum Probability>
78.18

> <Delta G>
0.996

> <G>
-16.002

> <E>
-35.679

> <-TS>
19.677

> <U+W>
-53.564

> <U>
6.751

> <W>
-60.315

> <W(PB)>
-62.637

> <W(SA)>
2.321

> <Valence>
7.602

> <Coulomb>
-1.744

> <VdW>
0.893

> <VdW6>
-7.110

> <VdW12>
8.004

> <Bond>
0.131

> <Angle>
2.489

> <Pdih>
4.982

> <Idih>
0.001

> <Tether>
0.000

$$$$
VeraChem MOL file


 22 21  0  0  0  0  0  0  0  0999 V2000     
   19.9959   19.0181   25.8023 C   0  0  0  0  0  0  0  0  0  0  0  0
   20.5947   19.9817   26.2379 O   0  5  0  0  0  0  0  0  0  0  0  0
   20.3756   17.8719   25.9402 O   0  0  0  0  0  0  0  0  0  0  0  0
   18.6863   19.2618   25.0576 C   0  0  0  0  0  0  0  0  0  0  0  0
   18.1022   19.9781   25.6472 H   0  0  0  0  0  0  0  0  0  0  0  0
   18.1149   18.3258   25.0383 H   0  0  0  0  0  0  0  0  0  0  0  0
   18.8716   19.8059   23.6172 C   0  0  0  0  0  0  0  0  0  0  0  0
   17.8888   20.0807   23.2109 H   0  0  0  0  0  0  0  0  0  0  0  0
   19.4691   20.7276   23.6504 H   0  0  0  0  0  0  0  0  0  0  0  0
   19.5431   18.7804   22.6764 C   0  0  0  0  0  0  0  0  0  0  0  0
   18.9491   17.8563   22.6571 H   0  0  0  0  0  0  0  0  0  0  0  0
   20.5347   18.5133   23.0674 H   0  0  0  0  0  0  0  0  0  0  0  0
   19.6887   19.3308   21.2414 C   0  0  0  0  0  0  0  0  0  0  0  0
   18.6981   19.5959   20.8472 H   0  0  0  0  0  0  0  0  0  0  0  0
   20.2828   20.2548   21.2616 H   0  0  0  0  0  0  0  0  0  0  0  0
   20.3600   18.3076   20.3015 C   0  0  0  0  0  0  0  0  0  0  0  0
   19.7676   17.3824   20.2775 H   0  0  0  0  0  0  0  0  0  0  0  0
   21.3521   18.0414   20.6917 H   0  0  0  0  0  0  0  0  0  0  0  0
   20.5041   18.8609   18.8695 C   0  0  0  0  0  0  0  0  0  0  0  0
   19.5227   19.1062   18.4426 H   0  0  0  0  0  0  0  0  0  0  0  0
   20.9829   18.1209   18.2152 H   0  0  0  0  0  0  0  0  0  0  0  0
   21.1192   19.7703   18.8599 H   0  0  0  0  0  0  0  0  0  0  0  0
  1  2  1  0  0  0  0
  1  3  2  0  0  0  0
  1  4  1  0  0  0  0
  4  5  1  0  0  0  0
  4  6  1  0  0  0  0
  4  7  1  0  0  0  0
  7  8  1  0  0  0  0
  7  9  1  0  0  0  0
  7 10  1  0  0  0  0
 10 11  1  0  0  0  0
 10 12  1  0  0  0  0
 10 13  1  0  0  0  0
 13 14  1  0  0  0  0
 13 15  1  0  0  0  0
 13 16  1  0  0  0  0
 16 17  1  0  0  0  0
 16 18  1  0  0  0  0
 16 19  1  0  0  0  0
 19 20  1  0  0  0  0
 19 21  1  0  0  0  0
 19 22  1  0  0  0  0
M  END
> <VM2 Rank>
8

> <Conf_Id>
134

> <Probability>
2.99

> <Sum Probability>
81.17

> <Delta G>
1.443

> <G>
-15.555

> <E>
-35.435

> <-TS>
19.880

> <U+W>
-53.320

> <U>
7.937

> <W>
-61.257

> <W(PB)>
-63.561

> <W(SA)>
2.304

> <Valence>
7.358

> <Coulomb>
-0.021

> <VdW>
0.600

> <VdW6>
-7.363

> <VdW12>
7.964

> <Bond>
0.121

> <Angle>
2.425

> <Pdih>
4.811

> <Idih>
0.001

> <Tether>
0.000

$$$$
VeraChem MOL file


 22 21  0  0  0  0  0  0  0  0999 V2000     
   19.5406   19.1474   25.7849 C   0  0  0  0  0  0  0  0  0  0  0  0
   19.5081   20.2903   26.1967 O   0  5  0  0  0  0  0  0  0  0  0  0
   18.6072   18.3742   25.8728 O   0  0  0  0  0  0  0  0  0  0  0  0
   20.8319   18.6523   25.1394 C   0  0  0  0  0  0  0  0  0  0  0  0
   20.8265   17.5556   25.1417 H   0  0  0  0  0  0  0  0  0  0  0  0
   21.6618   18.9669   25.7830 H   0  0  0  0  0  0  0  0  0  0  0  0
   21.0620   19.1836   23.7007 C   0  0  0  0  0  0  0  0  0  0  0  0
   21.0368   20.2823   23.7101 H   0  0  0  0  0  0  0  0  0  0  0  0
   22.0685   18.8933   23.3703 H   0  0  0  0  0  0  0  0  0  0  0  0
   20.0204   18.6449   22.6946 C   0  0  0  0  0  0  0  0  0  0  0  0
   19.0116   18.9462   23.0092 H   0  0  0  0  0  0  0  0  0  0  0  0
   20.0402   17.5464   22.6987 H   0  0  0  0  0  0  0  0  0  0  0  0
   20.2870   19.1609   21.2642 C   0  0  0  0  0  0  0  0  0  0  0  0
   20.2669   20.2594   21.2609 H   0  0  0  0  0  0  0  0  0  0  0  0
   21.2942   18.8583   20.9462 H   0  0  0  0  0  0  0  0  0  0  0  0
   19.2467   18.6238   20.2590 C   0  0  0  0  0  0  0  0  0  0  0  0
   18.2380   18.9262   20.5728 H   0  0  0  0  0  0  0  0  0  0  0  0
   19.2650   17.5251   20.2584 H   0  0  0  0  0  0  0  0  0  0  0  0
   19.5160   19.1415   18.8318 C   0  0  0  0  0  0  0  0  0  0  0  0
   20.5072   18.8264   18.4801 H   0  0  0  0  0  0  0  0  0  0  0  0
   19.4725   20.2380   18.7970 H   0  0  0  0  0  0  0  0  0  0  0  0
   18.7674   18.7502   18.1306 H   0  0  0  0  0  0  0  0  0  0  0  0
  1  2  1  0  0  0  0
  1  3  2  0  0  0  0
  1  4  1  0  0  0  0
  4  5  1  0  0  0  0
  4  6  1  0  0  0  0
  4  7  1  0  0  0  0
  7  8  1  0  0  0  0
  7  9  1  0  0  0  0
  7 10  1  0  0  0  0
 10 11  1  0  0  0  0
 10 12  1  0  0  0  0
 10 13  1  0  0  0  0
 13 14  1  0  0  0  0
 13 15  1  0  0  0  0
 13 16  1  0  0  0  0
 16 17  1  0  0  0  0
 16 18  1  0  0  0  0
 16 19  1  0  0  0  0
 19 20  1  0  0  0  0
 19 21  1  0  0  0  0
 19 22  1  0  0  0  0
M  END
> <VM2 Rank>
9

> <Conf_Id>
297

> <Probability>
2.89

> <Sum Probability>
84.06

> <Delta G>
1.463

> <G>
-15.535

> <E>
-35.414

> <-TS>
19.880

> <U+W>
-53.299

> <U>
7.937

> <W>
-61.236

> <W(PB)>
-63.533

> <W(SA)>
2.297

> <Valence>
7.358

> <Coulomb>
-0.022

> <VdW>
0.600

> <VdW6>
-7.363

> <VdW12>
7.963

> <Bond>
0.121

> <Angle>
2.425

> <Pdih>
4.811

> <Idih>
0.000

> <Tether>
0.000

$$$$
VeraChem MOL file


 22 21  0  0  0  0  0  0  0  0999 V2000     
   19.8254   19.1168   26.2070 C   0  0  0  0  0  0  0  0  0  0  0  0
   20.5310   20.1068   26.2306 O   0  5  0  0  0  0  0  0  0  0  0  0
   19.4086   18.5752   27.2114 O   0  0  0  0  0  0  0  0  0  0  0  0
   19.4267   18.5007   24.8650 C   0  0  0  0  0  0  0  0  0  0  0  0
   18.3312   18.4811   24.8268 H   0  0  0  0  0  0  0  0  0  0  0  0
   19.7664   17.4584   24.8699 H   0  0  0  0  0  0  0  0  0  0  0  0
   19.9822   19.2273   23.6112 C   0  0  0  0  0  0  0  0  0  0  0  0
   19.6433   20.2726   23.6157 H   0  0  0  0  0  0  0  0  0  0  0  0
   21.0798   19.2488   23.6588 H   0  0  0  0  0  0  0  0  0  0  0  0
   19.5322   18.5409   22.3032 C   0  0  0  0  0  0  0  0  0  0  0  0
   18.4346   18.5207   22.2579 H   0  0  0  0  0  0  0  0  0  0  0  0
   19.8719   17.4961   22.3011 H   0  0  0  0  0  0  0  0  0  0  0  0
   20.0859   19.2652   21.0574 C   0  0  0  0  0  0  0  0  0  0  0  0
   19.7464   20.3102   21.0591 H   0  0  0  0  0  0  0  0  0  0  0  0
   21.1835   19.2857   21.1022 H   0  0  0  0  0  0  0  0  0  0  0  0
   19.6365   18.5799   19.7499 C   0  0  0  0  0  0  0  0  0  0  0  0
   18.5390   18.5594   19.7006 H   0  0  0  0  0  0  0  0  0  0  0  0
   19.9761   17.5348   19.7437 H   0  0  0  0  0  0  0  0  0  0  0  0
   20.1916   19.3061   18.5082 C   0  0  0  0  0  0  0  0  0  0  0  0
   19.8416   20.3461   18.4723 H   0  0  0  0  0  0  0  0  0  0  0  0
   19.8625   18.8059   17.5881 H   0  0  0  0  0  0  0  0  0  0  0  0
   21.2895   19.3138   18.5158 H   0  0  0  0  0  0  0  0  0  0  0  0
  1  2  1  0  0  0  0
  1  3  2  0  0  0  0
  1  4  1  0  0  0  0
  4  5  1  0  0  0  0
  4  6  1  0  0  0  0
  4  7  1  0  0  0  0
  7  8  1  0  0  0  0
  7  9  1  0  0  0  0
  7 10  1  0  0  0  0
 10 11  1  0  0  0  0
 10 12  1  0  0  0  0
 10 13  1  0  0  0  0
 13 14  1  0  0  0  0
 13 15  1  0  0  0  0
 13 16  1  0  0  0  0
 16 17  1  0  0  0  0
 16 18  1  0  0  0  0
 16 19  1  0  0  0  0
 19 20  1  0  0  0  0
 19 21  1  0  0  0  0
 19 22  1  0  0  0  0
M  END
> <VM2 Rank>
10

> <Conf_Id>
0

> <Probability>
1.62

> <Sum Probability>
85.69

> <Delta G>
1.808

> <G>
-15.190

> <E>
-35.274

> <-TS>
20.084

> <U+W>
-53.159

> <U>
6.763

> <W>
-59.922

> <W(PB)>
-62.256

> <W(SA)>
2.334

> <Valence>
7.600

> <Coulomb>
-2.139

> <VdW>
1.302

> <VdW6>
-6.786

> <VdW12>
8.088

> <Bond>
0.134

> <Angle>
2.720

> <Pdih>
4.746

> <Idih>
0.000

> <Tether>
0.000

$$$$
VeraChem MOL file


 22 21  0  0  0  0  0  0  0  0999 V2000     
   19.5825   19.1133   25.9229 C   0  0  0  0  0  0  0  0  0  0  0  0
   19.5917   20.1598   26.5405 O   0  5  0  0  0  0  0  0  0  0  0  0
   19.7265   18.0243   26.4424 O   0  0  0  0  0  0  0  0  0  0  0  0
   19.4030   19.1717   24.4101 C   0  0  0  0  0  0  0  0  0  0  0  0
   18.7646   20.0320   24.1761 H   0  0  0  0  0  0  0  0  0  0  0  0
   18.8600   18.2706   24.1036 H   0  0  0  0  0  0  0  0  0  0  0  0
   20.7500   19.2828   23.6498 C   0  0  0  0  0  0  0  0  0  0  0  0
   21.3074   20.1444   24.0428 H   0  0  0  0  0  0  0  0  0  0  0  0
   21.3633   18.3954   23.8584 H   0  0  0  0  0  0  0  0  0  0  0  0
   20.5822   19.4556   22.1214 C   0  0  0  0  0  0  0  0  0  0  0  0
   21.5719   19.6330   21.6791 H   0  0  0  0  0  0  0  0  0  0  0  0
   19.9855   20.3557   21.9235 H   0  0  0  0  0  0  0  0  0  0  0  0
   19.9350   18.2286   21.4340 C   0  0  0  0  0  0  0  0  0  0  0  0
   20.4726   17.3211   21.7408 H   0  0  0  0  0  0  0  0  0  0  0  0
   18.8984   18.1086   21.7750 H   0  0  0  0  0  0  0  0  0  0  0  0
   19.9532   18.3130   19.8901 C   0  0  0  0  0  0  0  0  0  0  0  0
   19.5783   17.3649   19.4804 H   0  0  0  0  0  0  0  0  0  0  0  0
   20.9882   18.4162   19.5359 H   0  0  0  0  0  0  0  0  0  0  0  0
   19.0958   19.4699   19.3328 C   0  0  0  0  0  0  0  0  0  0  0  0
   19.0725   19.4367   18.2359 H   0  0  0  0  0  0  0  0  0  0  0  0
   19.5010   20.4461   19.6272 H   0  0  0  0  0  0  0  0  0  0  0  0
   18.0618   19.4024   19.6952 H   0  0  0  0  0  0  0  0  0  0  0  0
  1  2  1  0  0  0  0
  1  3  2  0  0  0  0
  1  4  1  0  0  0  0
  4  5  1  0  0  0  0
  4  6  1  0  0  0  0
  4  7  1  0  0  0  0
  7  8  1  0  0  0  0
  7  9  1  0  0  0  0
  7 10  1  0  0  0  0
 10 11  1  0  0  0  0
 10 12  1  0  0  0  0
 10 13  1  0  0  0  0
 13 14  1  0  0  0  0
 13 15  1  0  0  0  0
 13 16  1  0  0  0  0
 16 17  1  0  0  0  0
 16 18  1  0  0  0  0
 16 19  1  0  0  0  0
 19 20  1  0  0  0  0
 19 21  1  0  0  0  0
 19 22  1  0  0  0  0
M  END
> <VM2 Rank>
11

> <Conf_Id>
148

> <Probability>
1.62

> <Sum Probability>
87.31

> <Delta G>
1.809

> <G>
-15.189

> <E>
-34.999

> <-TS>
19.810

> <U+W>
-52.884

> <U>
7.600

> <W>
-60.484

> <W(PB)>
-62.769

> <W(SA)>
2.284

> <Valence>
8.094

> <Coulomb>
-1.473

> <VdW>
0.979

> <VdW6>
-7.827

> <VdW12>
8.806

> <Bond>
0.173

> <Angle>
2.687

> <Pdih>
5.233

> <Idih>
0.001

> <Tether>
0.000

$$$$
VeraChem MOL file


 22 21  0  0  0  0  0  0  0  0999 V2000     
   19.7290   19.2105   25.9882 C   0  0  0  0  0  0  0  0  0  0  0  0
   20.0548   20.3278   26.3374 O   0  5  0  0  0  0  0  0  0  0  0  0
   19.7208   18.2491   26.7314 O   0  0  0  0  0  0  0  0  0  0  0  0
   19.3301   18.9984   24.5321 C   0  0  0  0  0  0  0  0  0  0  0  0
   18.8410   19.9151   24.1846 H   0  0  0  0  0  0  0  0  0  0  0  0
   18.5826   18.1969   24.4977 H   0  0  0  0  0  0  0  0  0  0  0  0
   20.5374   18.6433   23.6255 C   0  0  0  0  0  0  0  0  0  0  0  0
   21.2567   19.4739   23.6290 H   0  0  0  0  0  0  0  0  0  0  0  0
   21.0598   17.7794   24.0593 H   0  0  0  0  0  0  0  0  0  0  0  0
   20.1410   18.3007   22.1694 C   0  0  0  0  0  0  0  0  0  0  0  0
   19.4158   17.4756   22.1700 H   0  0  0  0  0  0  0  0  0  0  0  0
   21.0351   17.9290   21.6528 H   0  0  0  0  0  0  0  0  0  0  0  0
   19.5606   19.5063   21.3898 C   0  0  0  0  0  0  0  0  0  0  0  0
   18.6647   19.8769   21.9036 H   0  0  0  0  0  0  0  0  0  0  0  0
   20.2852   20.3319   21.3910 H   0  0  0  0  0  0  0  0  0  0  0  0
   19.1687   19.1644   19.9332 C   0  0  0  0  0  0  0  0  0  0  0  0
   18.6442   20.0268   19.4991 H   0  0  0  0  0  0  0  0  0  0  0  0
   18.4527   18.3311   19.9272 H   0  0  0  0  0  0  0  0  0  0  0  0
   20.3776   18.8185   19.0368 C   0  0  0  0  0  0  0  0  0  0  0  0
   20.8646   17.8900   19.3596 H   0  0  0  0  0  0  0  0  0  0  0  0
   21.1235   19.6238   19.0550 H   0  0  0  0  0  0  0  0  0  0  0  0
   20.0561   18.6795   17.9965 H   0  0  0  0  0  0  0  0  0  0  0  0
  1  2  1  0  0  0  0
  1  3  2  0  0  0  0
  1  4  1  0  0  0  0
  4  5  1  0  0  0  0
  4  6  1  0  0  0  0
  4  7  1  0  0  0  0
  7  8  1  0  0  0  0
  7  9  1  0  0  0  0
  7 10  1  0  0  0  0
 10 11  1  0  0  0  0
 10 12  1  0  0  0  0
 10 13  1  0  0  0  0
 13 14  1  0  0  0  0
 13 15  1  0  0  0  0
 13 16  1  0  0  0  0
 16 17  1  0  0  0  0
 16 18  1  0  0  0  0
 16 19  1  0  0  0  0
 19 20  1  0  0  0  0
 19 21  1  0  0  0  0
 19 22  1  0  0  0  0
M  END
> <VM2 Rank>
12

> <Conf_Id>
279

> <Probability>
1.62

> <Sum Probability>
88.92

> <Delta G>
1.809

> <G>
-15.189

> <E>
-34.923

> <-TS>
19.735

> <U+W>
-52.808

> <U>
7.689

> <W>
-60.498

> <W(PB)>
-62.768

> <W(SA)>
2.270

> <Valence>
8.197

> <Coulomb>
-1.561

> <VdW>
1.053

> <VdW6>
-7.737

> <VdW12>
8.790

> <Bond>
0.181

> <Angle>
2.780

> <Pdih>
5.235

> <Idih>
0.001

> <Tether>
0.000

$$$$
VeraChem MOL file


 22 21  0  0  0  0  0  0  0  0999 V2000     
   19.7386   19.0320   25.9951 C   0  0  0  0  0  0  0  0  0  0  0  0
   19.6240   20.0410   26.6626 O   0  5  0  0  0  0  0  0  0  0  0  0
   20.1813   17.9862   26.4273 O   0  0  0  0  0  0  0  0  0  0  0  0
   19.3253   19.0881   24.5287 C   0  0  0  0  0  0  0  0  0  0  0  0
   18.4958   19.7994   24.4363 H   0  0  0  0  0  0  0  0  0  0  0  0
   18.9392   18.1001   24.2542 H   0  0  0  0  0  0  0  0  0  0  0  0
   20.4910   19.5010   23.5926 C   0  0  0  0  0  0  0  0  0  0  0  0
   20.9154   20.4467   23.9569 H   0  0  0  0  0  0  0  0  0  0  0  0
   21.2956   18.7554   23.6566 H   0  0  0  0  0  0  0  0  0  0  0  0
   20.0659   19.6866   22.1163 C   0  0  0  0  0  0  0  0  0  0  0  0
   20.9168   20.1120   21.5691 H   0  0  0  0  0  0  0  0  0  0  0  0
   19.2559   20.4263   22.0568 H   0  0  0  0  0  0  0  0  0  0  0  0
   19.6222   18.3695   21.4334 C   0  0  0  0  0  0  0  0  0  0  0  0
   20.4317   17.6293   21.4946 H   0  0  0  0  0  0  0  0  0  0  0  0
   18.7694   17.9446   21.9777 H   0  0  0  0  0  0  0  0  0  0  0  0
   19.2018   18.5548   19.9566 C   0  0  0  0  0  0  0  0  0  0  0  0
   18.3999   19.3031   19.8899 H   0  0  0  0  0  0  0  0  0  0  0  0
   18.7752   17.6103   19.5917 H   0  0  0  0  0  0  0  0  0  0  0  0
   20.3699   18.9598   19.0314 C   0  0  0  0  0  0  0  0  0  0  0  0
   20.0395   18.9835   17.9849 H   0  0  0  0  0  0  0  0  0  0  0  0
   21.1983   18.2436   19.1079 H   0  0  0  0  0  0  0  0  0  0  0  0
   20.7525   19.9574   19.2804 H   0  0  0  0  0  0  0  0  0  0  0  0
  1  2  1  0  0  0  0
  1  3  2  0  0  0  0
  1  4  1  0  0  0  0
  4  5  1  0  0  0  0
  4  6  1  0  0  0  0
  4  7  1  0  0  0  0
  7  8  1  0  0  0  0
  7  9  1  0  0  0  0
  7 10  1  0  0  0  0
 10 11  1  0  0  0  0
 10 12  1  0  0  0  0
 10 13  1  0  0  0  0
 13 14  1  0  0  0  0
 13 15  1  0  0  0  0
 13 16  1  0  0  0  0
 16 17  1  0  0  0  0
 16 18  1  0  0  0  0
 16 19  1  0  0  0  0
 19 20  1  0  0  0  0
 19 21  1  0  0  0  0
 19 22  1  0  0  0  0
M  END
> <VM2 Rank>
13

> <Conf_Id>
359

> <Probability>
1.54

> <Sum Probability>
90.47

> <Delta G>
1.838

> <G>
-15.160

> <E>
-34.895

> <-TS>
19.735

> <U+W>
-52.780

> <U>
7.689

> <W>
-60.470

> <W(PB)>
-62.778

> <W(SA)>
2.309

> <Valence>
8.197

> <Coulomb>
-1.561

> <VdW>
1.053

> <VdW6>
-7.737

> <VdW12>
8.790

> <Bond>
0.181

> <Angle>
2.780

> <Pdih>
5.235

> <Idih>
0.001

> <Tether>
0.000

$$$$
VeraChem MOL file


 22 21  0  0  0  0  0  0  0  0999 V2000     
   20.1687   19.2928   25.6671 C   0  0  0  0  0  0  0  0  0  0  0  0
   20.6279   20.4178   25.6629 O   0  5  0  0  0  0  0  0  0  0  0  0
   19.7433   18.7436   26.6642 O   0  0  0  0  0  0  0  0  0  0  0  0
   20.1025   18.5365   24.3452 C   0  0  0  0  0  0  0  0  0  0  0  0
   20.2141   17.4666   24.5581 H   0  0  0  0  0  0  0  0  0  0  0  0
   20.9662   18.8413   23.7433 H   0  0  0  0  0  0  0  0  0  0  0  0
   18.7830   18.7935   23.5723 C   0  0  0  0  0  0  0  0  0  0  0  0
   17.9363   18.5646   24.2341 H   0  0  0  0  0  0  0  0  0  0  0  0
   18.6998   19.8619   23.3329 H   0  0  0  0  0  0  0  0  0  0  0  0
   18.6443   17.9446   22.2834 C   0  0  0  0  0  0  0  0  0  0  0  0
   17.6739   18.1654   21.8184 H   0  0  0  0  0  0  0  0  0  0  0  0
   18.6126   16.8819   22.5599 H   0  0  0  0  0  0  0  0  0  0  0  0
   19.7628   18.1505   21.2310 C   0  0  0  0  0  0  0  0  0  0  0  0
   20.7288   17.8281   21.6412 H   0  0  0  0  0  0  0  0  0  0  0  0
   19.5598   17.4889   20.3778 H   0  0  0  0  0  0  0  0  0  0  0  0
   19.8713   19.6055   20.7223 C   0  0  0  0  0  0  0  0  0  0  0  0
   20.1519   20.2732   21.5477 H   0  0  0  0  0  0  0  0  0  0  0  0
   18.8929   19.9433   20.3539 H   0  0  0  0  0  0  0  0  0  0  0  0
   20.9163   19.7345   19.5957 C   0  0  0  0  0  0  0  0  0  0  0  0
   21.9107   19.4286   19.9463 H   0  0  0  0  0  0  0  0  0  0  0  0
   20.9841   20.7736   19.2483 H   0  0  0  0  0  0  0  0  0  0  0  0
   20.6474   19.1067   18.7361 H   0  0  0  0  0  0  0  0  0  0  0  0
  1  2  1  0  0  0  0
  1  3  2  0  0  0  0
  1  4  1  0  0  0  0
  4  5  1  0  0  0  0
  4  6  1  0  0  0  0
  4  7  1  0  0  0  0
  7  8  1  0  0  0  0
  7  9  1  0  0  0  0
  7 10  1  0  0  0  0
 10 11  1  0  0  0  0
 10 12  1  0  0  0  0
 10 13  1  0  0  0  0
 13 14  1  0  0  0  0
 13 15  1  0  0  0  0
 13 16  1  0  0  0  0
 16 17  1  0  0  0  0
 16 18  1  0  0  0  0
 16 19  1  0  0  0  0
 19 20  1  0  0  0  0
 19 21  1  0  0  0  0
 19 22  1  0  0  0  0
M  END
> <VM2 Rank>
14

> <Conf_Id>
325

> <Probability>
1.23

> <Sum Probability>
91.70

> <Delta G>
1.972

> <G>
-15.026

> <E>
-35.031

> <-TS>
20.005

> <U+W>
-52.916

> <U>
8.061

> <W>
-60.977

> <W(PB)>
-63.248

> <W(SA)>
2.270

> <Valence>
8.063

> <Coulomb>
-0.784

> <VdW>
0.783

> <VdW6>
-8.229

> <VdW12>
9.011

> <Bond>
0.183

> <Angle>
2.910

> <Pdih>
4.970

> <Idih>
0.001

> <Tether>
0.000

$$$$
VeraChem MOL file


 22 21  0  0  0  0  0  0  0  0999 V2000     
   19.8945   18.8878   25.8539 C   0  0  0  0  0  0  0  0  0  0  0  0
   19.0215   19.4118   26.5171 O   0  5  0  0  0  0  0  0  0  0  0  0
   20.3643   17.7952   26.1027 O   0  0  0  0  0  0  0  0  0  0  0  0
   20.4169   19.6352   24.6320 C   0  0  0  0  0  0  0  0  0  0  0  0
   21.4723   19.3701   24.4957 H   0  0  0  0  0  0  0  0  0  0  0  0
   20.3773   20.7097   24.8475 H   0  0  0  0  0  0  0  0  0  0  0  0
   19.6166   19.3176   23.3449 C   0  0  0  0  0  0  0  0  0  0  0  0
   19.6550   18.2356   23.1610 H   0  0  0  0  0  0  0  0  0  0  0  0
   18.5608   19.5798   23.4992 H   0  0  0  0  0  0  0  0  0  0  0  0
   20.1709   20.0828   22.1211 C   0  0  0  0  0  0  0  0  0  0  0  0
   21.2120   19.7861   21.9380 H   0  0  0  0  0  0  0  0  0  0  0  0
   20.1969   21.1562   22.3534 H   0  0  0  0  0  0  0  0  0  0  0  0
   19.3301   19.8833   20.8351 C   0  0  0  0  0  0  0  0  0  0  0  0
   18.3185   20.2751   21.0074 H   0  0  0  0  0  0  0  0  0  0  0  0
   19.7609   20.4992   20.0339 H   0  0  0  0  0  0  0  0  0  0  0  0
   19.2197   18.4212   20.3362 C   0  0  0  0  0  0  0  0  0  0  0  0
   18.5923   18.4063   19.4345 H   0  0  0  0  0  0  0  0  0  0  0  0
   18.6962   17.8055   21.0795 H   0  0  0  0  0  0  0  0  0  0  0  0
   20.5855   17.7841   20.0010 C   0  0  0  0  0  0  0  0  0  0  0  0
   20.4474   16.7860   19.5657 H   0  0  0  0  0  0  0  0  0  0  0  0
   21.2042   17.6718   20.9003 H   0  0  0  0  0  0  0  0  0  0  0  0
   21.1375   18.3965   19.2763 H   0  0  0  0  0  0  0  0  0  0  0  0
  1  2  1  0  0  0  0
  1  3  2  0  0  0  0
  1  4  1  0  0  0  0
  4  5  1  0  0  0  0
  4  6  1  0  0  0  0
  4  7  1  0  0  0  0
  7  8  1  0  0  0  0
  7  9  1  0  0  0  0
  7 10  1  0  0  0  0
 10 11  1  0  0  0  0
 10 12  1  0  0  0  0
 10 13  1  0  0  0  0
 13 14  1  0  0  0  0
 13 15  1  0  0  0  0
 13 16  1  0  0  0  0
 16 17  1  0  0  0  0
 16 18  1  0  0  0  0
 16 19  1  0  0  0  0
 19 20  1  0  0  0  0
 19 21  1  0  0  0  0
 19 22  1  0  0  0  0
M  END
> <VM2 Rank>
15

> <Conf_Id>
110

> <Probability>
1.17

> <Sum Probability>
92.87

> <Delta G>
2.000

> <G>
-14.998

> <E>
-34.972

> <-TS>
19.974

> <U+W>
-52.856

> <U>
8.103

> <W>
-60.960

> <W(PB)>
-63.238

> <W(SA)>
2.279

> <Valence>
8.053

> <Coulomb>
-0.790

> <VdW>
0.841

> <VdW6>
-8.065

> <VdW12>
8.906

> <Bond>
0.172

> <Angle>
2.891

> <Pdih>
4.989

> <Idih>
0.000

> <Tether>
0.000

$$$$
VeraChem MOL file


 22 21  0  0  0  0  0  0  0  0999 V2000     
   19.8690   19.3594   25.8358 C   0  0  0  0  0  0  0  0  0  0  0  0
   20.2170   20.5122   25.9983 O   0  5  0  0  0  0  0  0  0  0  0  0
   19.0551   18.7965   26.5410 O   0  0  0  0  0  0  0  0  0  0  0  0
   20.4739   18.5816   24.6724 C   0  0  0  0  0  0  0  0  0  0  0  0
   20.5494   17.5287   24.9694 H   0  0  0  0  0  0  0  0  0  0  0  0
   21.4951   18.9476   24.5119 H   0  0  0  0  0  0  0  0  0  0  0  0
   19.6493   18.7120   23.3681 C   0  0  0  0  0  0  0  0  0  0  0  0
   18.6273   18.3502   23.5464 H   0  0  0  0  0  0  0  0  0  0  0  0
   19.5718   19.7746   23.1020 H   0  0  0  0  0  0  0  0  0  0  0  0
   20.2878   17.9196   22.2041 C   0  0  0  0  0  0  0  0  0  0  0  0
   20.4282   16.8762   22.5175 H   0  0  0  0  0  0  0  0  0  0  0  0
   21.2916   18.3118   21.9945 H   0  0  0  0  0  0  0  0  0  0  0  0
   19.4357   17.9287   20.9100 C   0  0  0  0  0  0  0  0  0  0  0  0
   19.9335   17.3033   20.1565 H   0  0  0  0  0  0  0  0  0  0  0  0
   18.4713   17.4447   21.1160 H   0  0  0  0  0  0  0  0  0  0  0  0
   19.1707   19.3280   20.3014 C   0  0  0  0  0  0  0  0  0  0  0  0
   18.5810   19.9389   20.9977 H   0  0  0  0  0  0  0  0  0  0  0  0
   18.5490   19.2065   19.4038 H   0  0  0  0  0  0  0  0  0  0  0  0
   20.4615   20.0808   19.9128 C   0  0  0  0  0  0  0  0  0  0  0  0
   20.2186   21.0220   19.4030 H   0  0  0  0  0  0  0  0  0  0  0  0
   21.0791   19.4777   19.2348 H   0  0  0  0  0  0  0  0  0  0  0  0
   21.0608   20.3274   20.7983 H   0  0  0  0  0  0  0  0  0  0  0  0
  1  2  1  0  0  0  0
  1  3  2  0  0  0  0
  1  4  1  0  0  0  0
  4  5  1  0  0  0  0
  4  6  1  0  0  0  0
  4  7  1  0  0  0  0
  7  8  1  0  0  0  0
  7  9  1  0  0  0  0
  7 10  1  0  0  0  0
 10 11  1  0  0  0  0
 10 12  1  0  0  0  0
 10 13  1  0  0  0  0
 13 14  1  0  0  0  0
 13 15  1  0  0  0  0
 13 16  1  0  0  0  0
 16 17  1  0  0  0  0
 16 18  1  0  0  0  0
 16 19  1  0  0  0  0
 19 20  1  0  0  0  0
 19 21  1  0  0  0  0
 19 22  1  0  0  0  0
M  END
> <VM2 Rank>
16

> <Conf_Id>
183

> <Probability>
1.14

> <Sum Probability>
94.02

> <Delta G>
2.015

> <G>
-14.983

> <E>
-34.956

> <-TS>
19.974

> <U+W>
-52.841

> <U>
8.103

> <W>
-60.944

> <W(PB)>
-63.213

> <W(SA)>
2.269

> <Valence>
8.053

> <Coulomb>
-0.791

> <VdW>
0.841

> <VdW6>
-8.065

> <VdW12>
8.906

> <Bond>
0.172

> <Angle>
2.891

> <Pdih>
4.989

> <Idih>
0.000

> <Tether>
0.000

$$$$
VeraChem MOL file


 22 21  0  0  0  0  0  0  0  0999 V2000     
   19.5976   19.2733   25.6792 C   0  0  0  0  0  0  0  0  0  0  0  0
   19.4189   20.4667   25.8236 O   0  5  0  0  0  0  0  0  0  0  0  0
   18.8104   18.4256   26.0516 O   0  0  0  0  0  0  0  0  0  0  0  0
   20.8920   18.8156   25.0129 C   0  0  0  0  0  0  0  0  0  0  0  0
   21.0679   17.7651   25.2744 H   0  0  0  0  0  0  0  0  0  0  0  0
   21.7116   19.3940   25.4554 H   0  0  0  0  0  0  0  0  0  0  0  0
   20.9047   18.9944   23.4725 C   0  0  0  0  0  0  0  0  0  0  0  0
   20.7076   20.0482   23.2354 H   0  0  0  0  0  0  0  0  0  0  0  0
   21.9105   18.7662   23.0951 H   0  0  0  0  0  0  0  0  0  0  0  0
   19.8740   18.0843   22.7626 C   0  0  0  0  0  0  0  0  0  0  0  0
   18.8573   18.3522   23.0818 H   0  0  0  0  0  0  0  0  0  0  0  0
   20.0348   17.0458   23.0826 H   0  0  0  0  0  0  0  0  0  0  0  0
   19.9614   18.1419   21.2190 C   0  0  0  0  0  0  0  0  0  0  0  0
   20.9750   17.8668   20.8969 H   0  0  0  0  0  0  0  0  0  0  0  0
   19.2864   17.3810   20.8038 H   0  0  0  0  0  0  0  0  0  0  0  0
   19.5842   19.5208   20.6322 C   0  0  0  0  0  0  0  0  0  0  0  0
   20.2949   20.2847   20.9739 H   0  0  0  0  0  0  0  0  0  0  0  0
   18.5919   19.8198   20.9972 H   0  0  0  0  0  0  0  0  0  0  0  0
   19.5770   19.4964   19.0904 C   0  0  0  0  0  0  0  0  0  0  0  0
   19.3106   20.4829   18.6893 H   0  0  0  0  0  0  0  0  0  0  0  0
   18.8473   18.7686   18.7120 H   0  0  0  0  0  0  0  0  0  0  0  0
   20.5661   19.2266   18.6977 H   0  0  0  0  0  0  0  0  0  0  0  0
  1  2  1  0  0  0  0
  1  3  2  0  0  0  0
  1  4  1  0  0  0  0
  4  5  1  0  0  0  0
  4  6  1  0  0  0  0
  4  7  1  0  0  0  0
  7  8  1  0  0  0  0
  7  9  1  0  0  0  0
  7 10  1  0  0  0  0
 10 11  1  0  0  0  0
 10 12  1  0  0  0  0
 10 13  1  0  0  0  0
 13 14  1  0  0  0  0
 13 15  1  0  0  0  0
 13 16  1  0  0  0  0
 16 17  1  0  0  0  0
 16 18  1  0  0  0  0
 16 19  1  0  0  0  0
 19 20  1  0  0  0  0
 19 21  1  0  0  0  0
 19 22  1  0  0  0  0
M  END
> <VM2 Rank>
17

> <Conf_Id>
332

> <Probability>
0.75

> <Sum Probability>
94.77

> <Delta G>
2.267

> <G>
-14.731

> <E>
-34.712

> <-TS>
19.980

> <U+W>
-52.596

> <U>
8.925

> <W>
-61.521

> <W(PB)>
-63.790

> <W(SA)>
2.269

> <Valence>
7.882

> <Coulomb>
0.348

> <VdW>
0.695

> <VdW6>
-8.049

> <VdW12>
8.743

> <Bond>
0.156

> <Angle>
2.660

> <Pdih>
5.065

> <Idih>
0.001

> <Tether>
0.000

$$$$
VeraChem MOL file


 22 21  0  0  0  0  0  0  0  0999 V2000     
   19.7189   18.8577   25.6849 C   0  0  0  0  0  0  0  0  0  0  0  0
   18.9101   19.5642   26.2539 O   0  5  0  0  0  0  0  0  0  0  0  0
   19.6705   17.6434   25.6881 O   0  0  0  0  0  0  0  0  0  0  0  0
   20.8694   19.5341   24.9448 C   0  0  0  0  0  0  0  0  0  0  0  0
   21.6666   18.7972   24.7884 H   0  0  0  0  0  0  0  0  0  0  0  0
   21.2768   20.3064   25.6077 H   0  0  0  0  0  0  0  0  0  0  0  0
   20.4601   20.1749   23.5932 C   0  0  0  0  0  0  0  0  0  0  0  0
   19.6432   20.8902   23.7625 H   0  0  0  0  0  0  0  0  0  0  0  0
   21.3087   20.7512   23.2003 H   0  0  0  0  0  0  0  0  0  0  0  0
   20.0286   19.1254   22.5442 C   0  0  0  0  0  0  0  0  0  0  0  0
   19.1662   18.5585   22.9211 H   0  0  0  0  0  0  0  0  0  0  0  0
   20.8448   18.4060   22.3986 H   0  0  0  0  0  0  0  0  0  0  0  0
   19.6603   19.7853   21.1954 C   0  0  0  0  0  0  0  0  0  0  0  0
   18.8924   20.5512   21.3706 H   0  0  0  0  0  0  0  0  0  0  0  0
   20.5356   20.3095   20.7881 H   0  0  0  0  0  0  0  0  0  0  0  0
   19.1238   18.7832   20.1469 C   0  0  0  0  0  0  0  0  0  0  0  0
   18.7767   19.3443   19.2683 H   0  0  0  0  0  0  0  0  0  0  0  0
   18.2446   18.2610   20.5488 H   0  0  0  0  0  0  0  0  0  0  0  0
   20.1783   17.7508   19.6926 C   0  0  0  0  0  0  0  0  0  0  0  0
   20.4713   17.0884   20.5167 H   0  0  0  0  0  0  0  0  0  0  0  0
   21.0798   18.2503   19.3143 H   0  0  0  0  0  0  0  0  0  0  0  0
   19.7774   17.1217   18.8874 H   0  0  0  0  0  0  0  0  0  0  0  0
  1  2  1  0  0  0  0
  1  3  2  0  0  0  0
  1  4  1  0  0  0  0
  4  5  1  0  0  0  0
  4  6  1  0  0  0  0
  4  7  1  0  0  0  0
  7  8  1  0  0  0  0
  7  9  1  0  0  0  0
  7 10  1  0  0  0  0
 10 11  1  0  0  0  0
 10 12  1  0  0  0  0
 10 13  1  0  0  0  0
 13 14  1  0  0  0  0
 13 15  1  0  0  0  0
 13 16  1  0  0  0  0
 16 17  1  0  0  0  0
 16 18  1  0  0  0  0
 16 19  1  0  0  0  0
 19 20  1  0  0  0  0
 19 21  1  0  0  0  0
 19 22  1  0  0  0  0
M  END
> <VM2 Rank>
18

> <Conf_Id>
319

> <Probability>
0.64

> <Sum Probability>
95.41

> <Delta G>
2.358

> <G>
-14.640

> <E>
-34.625

> <-TS>
19.985

> <U+W>
-52.510

> <U>
9.110

> <W>
-61.620

> <W(PB)>
-63.904

> <W(SA)>
2.285

> <Valence>
7.861

> <Coulomb>
0.529

> <VdW>
0.720

> <VdW6>
-7.989

> <VdW12>
8.709

> <Bond>
0.152

> <Angle>
2.653

> <Pdih>
5.056

> <Idih>
0.001

> <Tether>
0.000

$$$$
VeraChem MOL file


 22 21  0  0  0  0  0  0  0  0999 V2000     
   19.7516   19.1504   25.8374 C   0  0  0  0  0  0  0  0  0  0  0  0
   19.7991   20.3027   26.2206 O   0  5  0  0  0  0  0  0  0  0  0  0
   18.9006   18.3586   26.1920 O   0  0  0  0  0  0  0  0  0  0  0  0
   20.8322   18.6679   24.8736 C   0  0  0  0  0  0  0  0  0  0  0  0
   20.8584   17.5717   24.8965 H   0  0  0  0  0  0  0  0  0  0  0  0
   21.7963   19.0164   25.2624 H   0  0  0  0  0  0  0  0  0  0  0  0
   20.6503   19.1687   23.4171 C   0  0  0  0  0  0  0  0  0  0  0  0
   20.5854   20.2656   23.4150 H   0  0  0  0  0  0  0  0  0  0  0  0
   21.5475   18.9030   22.8438 H   0  0  0  0  0  0  0  0  0  0  0  0
   19.3982   18.5676   22.7344 C   0  0  0  0  0  0  0  0  0  0  0  0
   18.5131   18.7882   23.3467 H   0  0  0  0  0  0  0  0  0  0  0  0
   19.4846   17.4730   22.6994 H   0  0  0  0  0  0  0  0  0  0  0  0
   19.1510   19.1142   21.3083 C   0  0  0  0  0  0  0  0  0  0  0  0
   18.1811   18.7378   20.9554 H   0  0  0  0  0  0  0  0  0  0  0  0
   19.0647   20.2088   21.3437 H   0  0  0  0  0  0  0  0  0  0  0  0
   20.2442   18.7098   20.2934 C   0  0  0  0  0  0  0  0  0  0  0  0
   20.3685   17.6182   20.2979 H   0  0  0  0  0  0  0  0  0  0  0  0
   21.2098   19.1440   20.5838 H   0  0  0  0  0  0  0  0  0  0  0  0
   19.8928   19.1792   18.8673 C   0  0  0  0  0  0  0  0  0  0  0  0
   20.6795   18.8878   18.1594 H   0  0  0  0  0  0  0  0  0  0  0  0
   19.7891   20.2715   18.8281 H   0  0  0  0  0  0  0  0  0  0  0  0
   18.9491   18.7326   18.5275 H   0  0  0  0  0  0  0  0  0  0  0  0
  1  2  1  0  0  0  0
  1  3  2  0  0  0  0
  1  4  1  0  0  0  0
  4  5  1  0  0  0  0
  4  6  1  0  0  0  0
  4  7  1  0  0  0  0
  7  8  1  0  0  0  0
  7  9  1  0  0  0  0
  7 10  1  0  0  0  0
 10 11  1  0  0  0  0
 10 12  1  0  0  0  0
 10 13  1  0  0  0  0
 13 14  1  0  0  0  0
 13 15  1  0  0  0  0
 13 16  1  0  0  0  0
 16 17  1  0  0  0  0
 16 18  1  0  0  0  0
 16 19  1  0  0  0  0
 19 20  1  0  0  0  0
 19 21  1  0  0  0  0
 19 22  1  0  0  0  0
M  END
> <VM2 Rank>
19

> <Conf_Id>
375

> <Probability>
0.62

> <Sum Probability>
96.03

> <Delta G>
2.378

> <G>
-14.620

> <E>
-34.607

> <-TS>
19.988

> <U+W>
-52.492

> <U>
8.586

> <W>
-61.078

> <W(PB)>
-63.354

> <W(SA)>
2.276

> <Valence>
7.933

> <Coulomb>
-0.125

> <VdW>
0.778

> <VdW6>
-7.981

> <VdW12>
8.759

> <Bond>
0.160

> <Angle>
2.698

> <Pdih>
5.074

> <Idih>
0.000

> <Tether>
0.000

$$$$
VeraChem MOL file


 22 21  0  0  0  0  0  0  0  0999 V2000     
   19.6162   18.9319   25.6923 C   0  0  0  0  0  0  0  0  0  0  0  0
   18.7400   19.7148   26.0022 O   0  5  0  0  0  0  0  0  0  0  0  0
   19.5678   17.7407   25.9281 O   0  0  0  0  0  0  0  0  0  0  0  0
   20.8560   19.4755   24.9876 C   0  0  0  0  0  0  0  0  0  0  0  0
   21.7317   19.0252   25.4696 H   0  0  0  0  0  0  0  0  0  0  0  0
   20.9154   20.5558   25.1673 H   0  0  0  0  0  0  0  0  0  0  0  0
   20.8944   19.1820   23.4653 C   0  0  0  0  0  0  0  0  0  0  0  0
   21.8710   19.4889   23.0673 H   0  0  0  0  0  0  0  0  0  0  0  0
   20.8143   18.0979   23.3102 H   0  0  0  0  0  0  0  0  0  0  0  0
   19.7737   19.9175   22.6923 C   0  0  0  0  0  0  0  0  0  0  0  0
   19.8192   20.9888   22.9313 H   0  0  0  0  0  0  0  0  0  0  0  0
   18.7909   19.5657   23.0353 H   0  0  0  0  0  0  0  0  0  0  0  0
   19.8733   19.7520   21.1573 C   0  0  0  0  0  0  0  0  0  0  0  0
   19.1212   20.4009   20.6879 H   0  0  0  0  0  0  0  0  0  0  0  0
   20.8523   20.1104   20.8108 H   0  0  0  0  0  0  0  0  0  0  0  0
   19.6509   18.2995   20.6791 C   0  0  0  0  0  0  0  0  0  0  0  0
   18.6955   17.9229   21.0700 H   0  0  0  0  0  0  0  0  0  0  0  0
   20.4391   17.6458   21.0752 H   0  0  0  0  0  0  0  0  0  0  0  0
   19.6476   18.2050   19.1400 C   0  0  0  0  0  0  0  0  0  0  0  0
   19.4918   17.1677   18.8165 H   0  0  0  0  0  0  0  0  0  0  0  0
   20.6030   18.5502   18.7236 H   0  0  0  0  0  0  0  0  0  0  0  0
   18.8446   18.8180   18.7101 H   0  0  0  0  0  0  0  0  0  0  0  0
  1  2  1  0  0  0  0
  1  3  2  0  0  0  0
  1  4  1  0  0  0  0
  4  5  1  0  0  0  0
  4  6  1  0  0  0  0
  4  7  1  0  0  0  0
  7  8  1  0  0  0  0
  7  9  1  0  0  0  0
  7 10  1  0  0  0  0
 10 11  1  0  0  0  0
 10 12  1  0  0  0  0
 10 13  1  0  0  0  0
 13 14  1  0  0  0  0
 13 15  1  0  0  0  0
 13 16  1  0  0  0  0
 16 17  1  0  0  0  0
 16 18  1  0  0  0  0
 16 19  1  0  0  0  0
 19 20  1  0  0  0  0
 19 21  1  0  0  0  0
 19 22  1  0  0  0  0
M  END
> <VM2 Rank>
20

> <Conf_Id>
116

> <Probability>
0.61

> <Sum Probability>
96.65

> <Delta G>
2.388

> <G>
-14.610

> <E>
-34.590

> <-TS>
19.980

> <U+W>
-52.475

> <U>
8.925

> <W>
-61.400

> <W(PB)>
-63.682

> <W(SA)>
2.282

> <Valence>
7.881

> <Coulomb>
0.348

> <VdW>
0.695

> <VdW6>
-8.049

> <VdW12>
8.743

> <Bond>
0.156

> <Angle>
2.660

> <Pdih>
5.065

> <Idih>
0.001

> <Tether>
0.000

$$$$
VeraChem MOL file


 22 21  0  0  0  0  0  0  0  0999 V2000     
   19.7553   19.0827   25.8400 C   0  0  0  0  0  0  0  0  0  0  0  0
   18.8219   19.8023   26.1365 O   0  5  0  0  0  0  0  0  0  0  0  0
   19.9259   17.9751   26.3101 O   0  0  0  0  0  0  0  0  0  0  0  0
   20.7812   19.6045   24.8377 C   0  0  0  0  0  0  0  0  0  0  0  0
   21.7758   19.3935   25.2480 H   0  0  0  0  0  0  0  0  0  0  0  0
   20.6881   20.6955   24.7764 H   0  0  0  0  0  0  0  0  0  0  0  0
   20.6608   18.9768   23.4245 C   0  0  0  0  0  0  0  0  0  0  0  0
   21.5261   19.2939   22.8287 H   0  0  0  0  0  0  0  0  0  0  0  0
   20.7156   17.8824   23.5066 H   0  0  0  0  0  0  0  0  0  0  0  0
   19.3535   19.3841   22.7032 C   0  0  0  0  0  0  0  0  0  0  0  0
   19.3203   20.4757   22.5845 H   0  0  0  0  0  0  0  0  0  0  0  0
   18.4952   19.1156   23.3341 H   0  0  0  0  0  0  0  0  0  0  0  0
   19.1734   18.7067   21.3239 C   0  0  0  0  0  0  0  0  0  0  0  0
   19.2071   17.6151   21.4430 H   0  0  0  0  0  0  0  0  0  0  0  0
   18.1696   18.9469   20.9475 H   0  0  0  0  0  0  0  0  0  0  0  0
   20.2200   19.1496   20.2765 C   0  0  0  0  0  0  0  0  0  0  0  0
   21.2261   18.8470   20.5950 H   0  0  0  0  0  0  0  0  0  0  0  0
   20.2242   20.2454   20.1972 H   0  0  0  0  0  0  0  0  0  0  0  0
   19.9278   18.5373   18.8918 C   0  0  0  0  0  0  0  0  0  0  0  0
   20.6809   18.8582   18.1604 H   0  0  0  0  0  0  0  0  0  0  0  0
   18.9424   18.8508   18.5230 H   0  0  0  0  0  0  0  0  0  0  0  0
   19.9444   17.4404   18.9364 H   0  0  0  0  0  0  0  0  0  0  0  0
  1  2  1  0  0  0  0
  1  3  2  0  0  0  0
  1  4  1  0  0  0  0
  4  5  1  0  0  0  0
  4  6  1  0  0  0  0
  4  7  1  0  0  0  0
  7  8  1  0  0  0  0
  7  9  1  0  0  0  0
  7 10  1  0  0  0  0
 10 11  1  0  0  0  0
 10 12  1  0  0  0  0
 10 13  1  0  0  0  0
 13 14  1  0  0  0  0
 13 15  1  0  0  0  0
 13 16  1  0  0  0  0
 16 17  1  0  0  0  0
 16 18  1  0  0  0  0
 16 19  1  0  0  0  0
 19 20  1  0  0  0  0
 19 21  1  0  0  0  0
 19 22  1  0  0  0  0
M  END
> <VM2 Rank>
21

> <Conf_Id>
370

> <Probability>
0.60

> <Sum Probability>
97.25

> <Delta G>
2.398

> <G>
-14.600

> <E>
-34.588

> <-TS>
19.988

> <U+W>
-52.472

> <U>
8.586

> <W>
-61.058

> <W(PB)>
-63.354

> <W(SA)>
2.296

> <Valence>
7.933

> <Coulomb>
-0.125

> <VdW>
0.778

> <VdW6>
-7.981

> <VdW12>
8.759

> <Bond>
0.160

> <Angle>
2.698

> <Pdih>
5.074

> <Idih>
0.000

> <Tether>
0.000

$$$$
VeraChem MOL file


 22 21  0  0  0  0  0  0  0  0999 V2000     
   19.9752   19.4203   25.4489 C   0  0  0  0  0  0  0  0  0  0  0  0
   20.4062   20.4988   25.0912 O   0  5  0  0  0  0  0  0  0  0  0  0
   19.1599   19.2844   26.3400 O   0  0  0  0  0  0  0  0  0  0  0  0
   20.5069   18.1647   24.7632 C   0  0  0  0  0  0  0  0  0  0  0  0
   20.8265   17.4737   25.5519 H   0  0  0  0  0  0  0  0  0  0  0  0
   21.4083   18.4278   24.1982 H   0  0  0  0  0  0  0  0  0  0  0  0
   19.4726   17.4550   23.8472 C   0  0  0  0  0  0  0  0  0  0  0  0
   19.9173   16.5330   23.4489 H   0  0  0  0  0  0  0  0  0  0  0  0
   18.6152   17.1432   24.4597 H   0  0  0  0  0  0  0  0  0  0  0  0
   18.9565   18.3210   22.6719 C   0  0  0  0  0  0  0  0  0  0  0  0
   18.4680   19.2241   23.0631 H   0  0  0  0  0  0  0  0  0  0  0  0
   18.1800   17.7558   22.1387 H   0  0  0  0  0  0  0  0  0  0  0  0
   20.0641   18.7232   21.6711 C   0  0  0  0  0  0  0  0  0  0  0  0
   20.8015   19.3655   22.1707 H   0  0  0  0  0  0  0  0  0  0  0  0
   20.5963   17.8249   21.3299 H   0  0  0  0  0  0  0  0  0  0  0  0
   19.4863   19.4740   20.4530 C   0  0  0  0  0  0  0  0  0  0  0  0
   18.9541   20.3736   20.7921 H   0  0  0  0  0  0  0  0  0  0  0  0
   18.7489   18.8399   19.9416 H   0  0  0  0  0  0  0  0  0  0  0  0
   20.5924   19.8776   19.4574 C   0  0  0  0  0  0  0  0  0  0  0  0
   21.3275   20.5390   19.9344 H   0  0  0  0  0  0  0  0  0  0  0  0
   20.1642   20.4102   18.5984 H   0  0  0  0  0  0  0  0  0  0  0  0
   21.1216   18.9933   19.0787 H   0  0  0  0  0  0  0  0  0  0  0  0
  1  2  1  0  0  0  0
  1  3  2  0  0  0  0
  1  4  1  0  0  0  0
  4  5  1  0  0  0  0
  4  6  1  0  0  0  0
  4  7  1  0  0  0  0
  7  8  1  0  0  0  0
  7  9  1  0  0  0  0
  7 10  1  0  0  0  0
 10 11  1  0  0  0  0
 10 12  1  0  0  0  0
 10 13  1  0  0  0  0
 13 14  1  0  0  0  0
 13 15  1  0  0  0  0
 13 16  1  0  0  0  0
 16 17  1  0  0  0  0
 16 18  1  0  0  0  0
 16 19  1  0  0  0  0
 19 20  1  0  0  0  0
 19 21  1  0  0  0  0
 19 22  1  0  0  0  0
M  END
> <VM2 Rank>
22

> <Conf_Id>
93

> <Probability>
0.42

> <Sum Probability>
97.67

> <Delta G>
2.613

> <G>
-14.385

> <E>
-34.413

> <-TS>
20.027

> <U+W>
-52.298

> <U>
9.623

> <W>
-61.921

> <W(PB)>
-64.196

> <W(SA)>
2.275

> <Valence>
7.870

> <Coulomb>
1.264

> <VdW>
0.489

> <VdW6>
-8.389

> <VdW12>
8.878

> <Bond>
0.170

> <Angle>
2.768

> <Pdih>
4.931

> <Idih>
0.001

> <Tether>
0.000

$$$$
VeraChem MOL file


 22 21  0  0  0  0  0  0  0  0999 V2000     
   20.0083   18.8094   25.4722 C   0  0  0  0  0  0  0  0  0  0  0  0
   19.1793   18.9244   26.3537 O   0  5  0  0  0  0  0  0  0  0  0  0
   20.5543   17.7594   25.1962 O   0  0  0  0  0  0  0  0  0  0  0  0
   20.4045   20.0589   24.6906 C   0  0  0  0  0  0  0  0  0  0  0  0
   21.3314   19.8520   24.1436 H   0  0  0  0  0  0  0  0  0  0  0  0
   20.6446   20.8384   25.4230 H   0  0  0  0  0  0  0  0  0  0  0  0
   19.3036   20.5812   23.7273 C   0  0  0  0  0  0  0  0  0  0  0  0
   18.4152   20.8448   24.3178 H   0  0  0  0  0  0  0  0  0  0  0  0
   19.6482   21.5125   23.2580 H   0  0  0  0  0  0  0  0  0  0  0  0
   18.8886   19.5775   22.6237 C   0  0  0  0  0  0  0  0  0  0  0  0
   18.0580   20.0135   22.0521 H   0  0  0  0  0  0  0  0  0  0  0  0
   18.4983   18.6597   23.0848 H   0  0  0  0  0  0  0  0  0  0  0  0
   20.0371   19.2214   21.6521 C   0  0  0  0  0  0  0  0  0  0  0  0
   20.4711   20.1431   21.2411 H   0  0  0  0  0  0  0  0  0  0  0  0
   20.8373   18.7023   22.1962 H   0  0  0  0  0  0  0  0  0  0  0  0
   19.5485   18.3221   20.4972 C   0  0  0  0  0  0  0  0  0  0  0  0
   18.7494   18.8323   19.9418 H   0  0  0  0  0  0  0  0  0  0  0  0
   19.1145   17.3990   20.9062 H   0  0  0  0  0  0  0  0  0  0  0  0
   20.6958   17.9647   19.5310 C   0  0  0  0  0  0  0  0  0  0  0  0
   20.3309   17.3251   18.7169 H   0  0  0  0  0  0  0  0  0  0  0  0
   21.4956   17.4245   20.0542 H   0  0  0  0  0  0  0  0  0  0  0  0
   21.1286   18.8692   19.0837 H   0  0  0  0  0  0  0  0  0  0  0  0
  1  2  1  0  0  0  0
  1  3  2  0  0  0  0
  1  4  1  0  0  0  0
  4  5  1  0  0  0  0
  4  6  1  0  0  0  0
  4  7  1  0  0  0  0
  7  8  1  0  0  0  0
  7  9  1  0  0  0  0
  7 10  1  0  0  0  0
 10 11  1  0  0  0  0
 10 12  1  0  0  0  0
 10 13  1  0  0  0  0
 13 14  1  0  0  0  0
 13 15  1  0  0  0  0
 13 16  1  0  0  0  0
 16 17  1  0  0  0  0
 16 18  1  0  0  0  0
 16 19  1  0  0  0  0
 19 20  1  0  0  0  0
 19 21  1  0  0  0  0
 19 22  1  0  0  0  0
M  END
> <VM2 Rank>
23

> <Conf_Id>
140

> <Probability>
0.39

> <Sum Probability>
98.06

> <Delta G>
2.655

> <G>
-14.343

> <E>
-34.370

> <-TS>
20.027

> <U+W>
-52.255

> <U>
9.624

> <W>
-61.879

> <W(PB)>
-64.142

> <W(SA)>
2.263

> <Valence>
7.870

> <Coulomb>
1.265

> <VdW>
0.489

> <VdW6>
-8.389

> <VdW12>
8.878

> <Bond>
0.170

> <Angle>
2.768

> <Pdih>
4.931

> <Idih>
0.001

> <Tether>
0.000

$$$$
VeraChem MOL file


 22 21  0  0  0  0  0  0  0  0999 V2000     
   19.9409   18.8672   25.6812 C   0  0  0  0  0  0  0  0  0  0  0  0
   19.8596   19.7080   26.5547 O   0  5  0  0  0  0  0  0  0  0  0  0
   20.5775   17.8384   25.7951 O   0  0  0  0  0  0  0  0  0  0  0  0
   19.2202   19.1266   24.3632 C   0  0  0  0  0  0  0  0  0  0  0  0
   18.3114   19.7010   24.5786 H   0  0  0  0  0  0  0  0  0  0  0  0
   18.9052   18.1579   23.9588 H   0  0  0  0  0  0  0  0  0  0  0  0
   20.1011   19.8842   23.3364 C   0  0  0  0  0  0  0  0  0  0  0  0
   20.4674   20.8101   23.8008 H   0  0  0  0  0  0  0  0  0  0  0  0
   20.9932   19.2868   23.1058 H   0  0  0  0  0  0  0  0  0  0  0  0
   19.3525   20.2496   22.0301 C   0  0  0  0  0  0  0  0  0  0  0  0
   20.0271   20.8264   21.3837 H   0  0  0  0  0  0  0  0  0  0  0  0
   18.5236   20.9276   22.2745 H   0  0  0  0  0  0  0  0  0  0  0  0
   18.7871   19.0440   21.2337 C   0  0  0  0  0  0  0  0  0  0  0  0
   17.9925   18.5625   21.8184 H   0  0  0  0  0  0  0  0  0  0  0  0
   18.2987   19.4228   20.3257 H   0  0  0  0  0  0  0  0  0  0  0  0
   19.8307   17.9740   20.8288 C   0  0  0  0  0  0  0  0  0  0  0  0
   19.3131   17.1633   20.2979 H   0  0  0  0  0  0  0  0  0  0  0  0
   20.2714   17.5174   21.7250 H   0  0  0  0  0  0  0  0  0  0  0  0
   20.9504   18.5270   19.9209 C   0  0  0  0  0  0  0  0  0  0  0  0
   20.5307   19.0033   19.0254 H   0  0  0  0  0  0  0  0  0  0  0  0
   21.6152   17.7171   19.5940 H   0  0  0  0  0  0  0  0  0  0  0  0
   21.5631   19.2676   20.4502 H   0  0  0  0  0  0  0  0  0  0  0  0
  1  2  1  0  0  0  0
  1  3  2  0  0  0  0
  1  4  1  0  0  0  0
  4  5  1  0  0  0  0
  4  6  1  0  0  0  0
  4  7  1  0  0  0  0
  7  8  1  0  0  0  0
  7  9  1  0  0  0  0
  7 10  1  0  0  0  0
 10 11  1  0  0  0  0
 10 12  1  0  0  0  0
 10 13  1  0  0  0  0
 13 14  1  0  0  0  0
 13 15  1  0  0  0  0
 13 16  1  0  0  0  0
 16 17  1  0  0  0  0
 16 18  1  0  0  0  0
 16 19  1  0  0  0  0
 19 20  1  0  0  0  0
 19 21  1  0  0  0  0
 19 22  1  0  0  0  0
M  END
> <VM2 Rank>
24

> <Conf_Id>
94

> <Probability>
0.26

> <Sum Probability>
98.33

> <Delta G>
2.889

> <G>
-14.109

> <E>
-34.425

> <-TS>
20.316

> <U+W>
-52.310

> <U>
8.874

> <W>
-61.184

> <W(PB)>
-63.414

> <W(SA)>
2.230

> <Valence>
8.479

> <Coulomb>
-0.357

> <VdW>
0.753

> <VdW6>
-9.080

> <VdW12>
9.833

> <Bond>
0.221

> <Angle>
3.208

> <Pdih>
5.050

> <Idih>
0.000

> <Tether>
0.000

$$$$
VeraChem MOL file


 22 21  0  0  0  0  0  0  0  0999 V2000     
   19.9137   19.3717   25.6619 C   0  0  0  0  0  0  0  0  0  0  0  0
   20.4353   20.4688   25.6945 O   0  5  0  0  0  0  0  0  0  0  0  0
   19.9202   18.5959   26.5971 O   0  0  0  0  0  0  0  0  0  0  0  0
   19.2304   18.9367   24.3705 C   0  0  0  0  0  0  0  0  0  0  0  0
   18.8151   19.8322   23.8946 H   0  0  0  0  0  0  0  0  0  0  0  0
   18.3876   18.2863   24.6329 H   0  0  0  0  0  0  0  0  0  0  0  0
   20.1917   18.2016   23.4010 C   0  0  0  0  0  0  0  0  0  0  0  0
   21.0155   18.8718   23.1217 H   0  0  0  0  0  0  0  0  0  0  0  0
   20.6531   17.3584   23.9332 H   0  0  0  0  0  0  0  0  0  0  0  0
   19.4918   17.6595   22.1294 C   0  0  0  0  0  0  0  0  0  0  0  0
   18.7393   16.9172   22.4283 H   0  0  0  0  0  0  0  0  0  0  0  0
   20.2269   17.1106   21.5262 H   0  0  0  0  0  0  0  0  0  0  0  0
   18.8039   18.7331   21.2456 C   0  0  0  0  0  0  0  0  0  0  0  0
   18.3625   18.2360   20.3712 H   0  0  0  0  0  0  0  0  0  0  0  0
   17.9598   19.1700   21.7952 H   0  0  0  0  0  0  0  0  0  0  0  0
   19.7284   19.8747   20.7558 C   0  0  0  0  0  0  0  0  0  0  0  0
   20.1141   20.4430   21.6127 H   0  0  0  0  0  0  0  0  0  0  0  0
   19.1292   20.5824   20.1668 H   0  0  0  0  0  0  0  0  0  0  0  0
   20.9046   19.3771   19.8882 C   0  0  0  0  0  0  0  0  0  0  0  0
   21.5910   18.7490   20.4700 H   0  0  0  0  0  0  0  0  0  0  0  0
   21.4801   20.2262   19.4976 H   0  0  0  0  0  0  0  0  0  0  0  0
   20.5420   18.7916   19.0335 H   0  0  0  0  0  0  0  0  0  0  0  0
  1  2  1  0  0  0  0
  1  3  2  0  0  0  0
  1  4  1  0  0  0  0
  4  5  1  0  0  0  0
  4  6  1  0  0  0  0
  4  7  1  0  0  0  0
  7  8  1  0  0  0  0
  7  9  1  0  0  0  0
  7 10  1  0  0  0  0
 10 11  1  0  0  0  0
 10 12  1  0  0  0  0
 10 13  1  0  0  0  0
 13 14  1  0  0  0  0
 13 15  1  0  0  0  0
 13 16  1  0  0  0  0
 16 17  1  0  0  0  0
 16 18  1  0  0  0  0
 16 19  1  0  0  0  0
 19 20  1  0  0  0  0
 19 21  1  0  0  0  0
 19 22  1  0  0  0  0
M  END
> <VM2 Rank>
25

> <Conf_Id>
69

> <Probability>
0.25

> <Sum Probability>
98.57

> <Delta G>
2.932

> <G>
-14.066

> <E>
-34.382

> <-TS>
20.316

> <U+W>
-52.267

> <U>
8.874

> <W>
-61.141

> <W(PB)>
-63.377

> <W(SA)>
2.237

> <Valence>
8.479

> <Coulomb>
-0.357

> <VdW>
0.753

> <VdW6>
-9.080

> <VdW12>
9.833

> <Bond>
0.221

> <Angle>
3.208

> <Pdih>
5.050

> <Idih>
0.000

> <Tether>
0.000

$$$$
VeraChem MOL file


 22 21  0  0  0  0  0  0  0  0999 V2000     
   19.7589   19.2002   25.7233 C   0  0  0  0  0  0  0  0  0  0  0  0
   20.1898   20.3093   25.9709 O   0  5  0  0  0  0  0  0  0  0  0  0
   20.0848   18.2009   26.3333 O   0  0  0  0  0  0  0  0  0  0  0  0
   18.7363   19.0554   24.5996 C   0  0  0  0  0  0  0  0  0  0  0  0
   18.3027   20.0410   24.3908 H   0  0  0  0  0  0  0  0  0  0  0  0
   17.9230   18.4244   24.9769 H   0  0  0  0  0  0  0  0  0  0  0  0
   19.3096   18.4368   23.2981 C   0  0  0  0  0  0  0  0  0  0  0  0
   19.7758   17.4690   23.5289 H   0  0  0  0  0  0  0  0  0  0  0  0
   18.4763   18.2333   22.6135 H   0  0  0  0  0  0  0  0  0  0  0  0
   20.3370   19.3619   22.6029 C   0  0  0  0  0  0  0  0  0  0  0  0
   21.1371   19.6100   23.3136 H   0  0  0  0  0  0  0  0  0  0  0  0
   19.8600   20.3151   22.3402 H   0  0  0  0  0  0  0  0  0  0  0  0
   20.9864   18.7301   21.3458 C   0  0  0  0  0  0  0  0  0  0  0  0
   21.7382   19.4270   20.9510 H   0  0  0  0  0  0  0  0  0  0  0  0
   21.5377   17.8286   21.6460 H   0  0  0  0  0  0  0  0  0  0  0  0
   20.0046   18.3580   20.2073 C   0  0  0  0  0  0  0  0  0  0  0  0
   19.3076   17.5804   20.5463 H   0  0  0  0  0  0  0  0  0  0  0  0
   20.5783   17.9118   19.3834 H   0  0  0  0  0  0  0  0  0  0  0  0
   19.2126   19.5663   19.6628 C   0  0  0  0  0  0  0  0  0  0  0  0
   18.6030   19.2688   18.7998 H   0  0  0  0  0  0  0  0  0  0  0  0
   19.8904   20.3668   19.3390 H   0  0  0  0  0  0  0  0  0  0  0  0
   18.5352   19.9744   20.4235 H   0  0  0  0  0  0  0  0  0  0  0  0
  1  2  1  0  0  0  0
  1  3  2  0  0  0  0
  1  4  1  0  0  0  0
  4  5  1  0  0  0  0
  4  6  1  0  0  0  0
  4  7  1  0  0  0  0
  7  8  1  0  0  0  0
  7  9  1  0  0  0  0
  7 10  1  0  0  0  0
 10 11  1  0  0  0  0
 10 12  1  0  0  0  0
 10 13  1  0  0  0  0
 13 14  1  0  0  0  0
 13 15  1  0  0  0  0
 13 16  1  0  0  0  0
 16 17  1  0  0  0  0
 16 18  1  0  0  0  0
 16 19  1  0  0  0  0
 19 20  1  0  0  0  0
 19 21  1  0  0  0  0
 19 22  1  0  0  0  0
M  END
> <VM2 Rank>
26

> <Conf_Id>
152

> <Probability>
0.11

> <Sum Probability>
98.68

> <Delta G>
3.402

> <G>
-13.596

> <E>
-33.890

> <-TS>
20.293

> <U+W>
-51.774

> <U>
9.546

> <W>
-61.321

> <W(PB)>
-63.553

> <W(SA)>
2.233

> <Valence>
8.350

> <Coulomb>
0.448

> <VdW>
0.749

> <VdW6>
-8.872

> <VdW12>
9.620

> <Bond>
0.198

> <Angle>
3.089

> <Pdih>
5.062

> <Idih>
0.001

> <Tether>
0.000

$$$$
VeraChem MOL file


 22 21  0  0  0  0  0  0  0  0999 V2000     
   19.7684   19.0251   25.7300 C   0  0  0  0  0  0  0  0  0  0  0  0
   19.9821   20.0974   26.2607 O   0  5  0  0  0  0  0  0  0  0  0  0
   20.3154   17.9912   26.0597 O   0  0  0  0  0  0  0  0  0  0  0  0
   18.7408   18.9726   24.6028 C   0  0  0  0  0  0  0  0  0  0  0  0
   17.8626   19.5391   24.9342 H   0  0  0  0  0  0  0  0  0  0  0  0
   18.4169   17.9330   24.4716 H   0  0  0  0  0  0  0  0  0  0  0  0
   19.2494   19.5484   23.2555 C   0  0  0  0  0  0  0  0  0  0  0  0
   18.4018   19.6079   22.5609 H   0  0  0  0  0  0  0  0  0  0  0  0
   19.6073   20.5757   23.4098 H   0  0  0  0  0  0  0  0  0  0  0  0
   20.3735   18.6893   22.6287 C   0  0  0  0  0  0  0  0  0  0  0  0
   20.0034   17.6728   22.4416 H   0  0  0  0  0  0  0  0  0  0  0  0
   21.1928   18.5840   23.3529 H   0  0  0  0  0  0  0  0  0  0  0  0
   20.9560   19.2896   21.3244 C   0  0  0  0  0  0  0  0  0  0  0  0
   21.4053   20.2657   21.5524 H   0  0  0  0  0  0  0  0  0  0  0  0
   21.7804   18.6499   20.9808 H   0  0  0  0  0  0  0  0  0  0  0  0
   19.9444   19.4652   20.1648 C   0  0  0  0  0  0  0  0  0  0  0  0
   20.4700   19.9065   19.3068 H   0  0  0  0  0  0  0  0  0  0  0  0
   19.1660   20.1865   20.4462 H   0  0  0  0  0  0  0  0  0  0  0  0
   19.2900   18.1403   19.7175 C   0  0  0  0  0  0  0  0  0  0  0  0
   18.6576   17.7207   20.5101 H   0  0  0  0  0  0  0  0  0  0  0  0
   20.0517   17.3954   19.4531 H   0  0  0  0  0  0  0  0  0  0  0  0
   18.6554   18.3032   18.8369 H   0  0  0  0  0  0  0  0  0  0  0  0
  1  2  1  0  0  0  0
  1  3  2  0  0  0  0
  1  4  1  0  0  0  0
  4  5  1  0  0  0  0
  4  6  1  0  0  0  0
  4  7  1  0  0  0  0
  7  8  1  0  0  0  0
  7  9  1  0  0  0  0
  7 10  1  0  0  0  0
 10 11  1  0  0  0  0
 10 12  1  0  0  0  0
 10 13  1  0  0  0  0
 13 14  1  0  0  0  0
 13 15  1  0  0  0  0
 13 16  1  0  0  0  0
 16 17  1  0  0  0  0
 16 18  1  0  0  0  0
 16 19  1  0  0  0  0
 19 20  1  0  0  0  0
 19 21  1  0  0  0  0
 19 22  1  0  0  0  0
M  END
> <VM2 Rank>
27

> <Conf_Id>
90

> <Probability>
0.11

> <Sum Probability>
98.80

> <Delta G>
3.408

> <G>
-13.590

> <E>
-33.883

> <-TS>
20.293

> <U+W>
-51.768

> <U>
9.546

> <W>
-61.314

> <W(PB)>
-63.555

> <W(SA)>
2.241

> <Valence>
8.349

> <Coulomb>
0.448

> <VdW>
0.749

> <VdW6>
-8.872

> <VdW12>
9.620

> <Bond>
0.198

> <Angle>
3.089

> <Pdih>
5.062

> <Idih>
0.001

> <Tether>
0.000

$$$$
VeraChem MOL file


 22 21  0  0  0  0  0  0  0  0999 V2000     
   20.1472   19.2037   25.4604 C   0  0  0  0  0  0  0  0  0  0  0  0
   20.7301   20.2666   25.5465 O   0  5  0  0  0  0  0  0  0  0  0  0
   20.6162   18.1472   25.8358 O   0  0  0  0  0  0  0  0  0  0  0  0
   18.7382   19.2018   24.8737 C   0  0  0  0  0  0  0  0  0  0  0  0
   18.1928   20.0382   25.3264 H   0  0  0  0  0  0  0  0  0  0  0  0
   18.2289   18.2830   25.1886 H   0  0  0  0  0  0  0  0  0  0  0  0
   18.6998   19.3339   23.3291 C   0  0  0  0  0  0  0  0  0  0  0  0
   17.6575   19.4579   23.0061 H   0  0  0  0  0  0  0  0  0  0  0  0
   19.2347   20.2475   23.0372 H   0  0  0  0  0  0  0  0  0  0  0  0
   19.3137   18.1066   22.6144 C   0  0  0  0  0  0  0  0  0  0  0  0
   18.8205   17.1963   22.9817 H   0  0  0  0  0  0  0  0  0  0  0  0
   20.3729   18.0070   22.8862 H   0  0  0  0  0  0  0  0  0  0  0  0
   19.1684   18.1531   21.0726 C   0  0  0  0  0  0  0  0  0  0  0  0
   19.5852   17.2279   20.6520 H   0  0  0  0  0  0  0  0  0  0  0  0
   18.1004   18.1486   20.8153 H   0  0  0  0  0  0  0  0  0  0  0  0
   19.8424   19.3641   20.3811 C   0  0  0  0  0  0  0  0  0  0  0  0
   19.3661   20.2988   20.7053 H   0  0  0  0  0  0  0  0  0  0  0  0
   19.6645   19.2925   19.2993 H   0  0  0  0  0  0  0  0  0  0  0  0
   21.3641   19.4421   20.6303 C   0  0  0  0  0  0  0  0  0  0  0  0
   21.8078   20.2589   20.0467 H   0  0  0  0  0  0  0  0  0  0  0  0
   21.8589   18.5074   20.3363 H   0  0  0  0  0  0  0  0  0  0  0  0
   21.5851   19.6314   21.6886 H   0  0  0  0  0  0  0  0  0  0  0  0
  1  2  1  0  0  0  0
  1  3  2  0  0  0  0
  1  4  1  0  0  0  0
  4  5  1  0  0  0  0
  4  6  1  0  0  0  0
  4  7  1  0  0  0  0
  7  8  1  0  0  0  0
  7  9  1  0  0  0  0
  7 10  1  0  0  0  0
 10 11  1  0  0  0  0
 10 12  1  0  0  0  0
 10 13  1  0  0  0  0
 13 14  1  0  0  0  0
 13 15  1  0  0  0  0
 13 16  1  0  0  0  0
 16 17  1  0  0  0  0
 16 18  1  0  0  0  0
 16 19  1  0  0  0  0
 19 20  1  0  0  0  0
 19 21  1  0  0  0  0
 19 22  1  0  0  0  0
M  END
> <VM2 Rank>
28

> <Conf_Id>
315

> <Probability>
0.08

> <Sum Probability>
98.88

> <Delta G>
3.577

> <G>
-13.421

> <E>
-33.724

> <-TS>
20.303

> <U+W>
-51.608

> <U>
10.394

> <W>
-62.003

> <W(PB)>
-64.205

> <W(SA)>
2.203

> <Valence>
8.284

> <Coulomb>
1.521

> <VdW>
0.589

> <VdW6>
-9.071

> <VdW12>
9.660

> <Bond>
0.194

> <Angle>
3.030

> <Pdih>
5.059

> <Idih>
0.001

> <Tether>
0.000

$$$$
VeraChem MOL file


 22 21  0  0  0  0  0  0  0  0999 V2000     
   19.6883   19.4242   25.4458 C   0  0  0  0  0  0  0  0  0  0  0  0
   20.1499   20.5454   25.5284 O   0  5  0  0  0  0  0  0  0  0  0  0
   18.5524   19.1391   25.7704 O   0  0  0  0  0  0  0  0  0  0  0  0
   20.5954   18.3092   24.9325 C   0  0  0  0  0  0  0  0  0  0  0  0
   20.1798   17.3453   25.2504 H   0  0  0  0  0  0  0  0  0  0  0  0
   21.5646   18.4176   25.4332 H   0  0  0  0  0  0  0  0  0  0  0  0
   20.8019   18.3237   23.3957 C   0  0  0  0  0  0  0  0  0  0  0  0
   21.1962   19.3048   23.0993 H   0  0  0  0  0  0  0  0  0  0  0  0
   21.5651   17.5800   23.1300 H   0  0  0  0  0  0  0  0  0  0  0  0
   19.4985   18.0177   22.6202 C   0  0  0  0  0  0  0  0  0  0  0  0
   18.7464   18.7884   22.8346 H   0  0  0  0  0  0  0  0  0  0  0  0
   19.0770   17.0730   22.9896 H   0  0  0  0  0  0  0  0  0  0  0  0
   19.7048   17.8954   21.0895 C   0  0  0  0  0  0  0  0  0  0  0  0
   20.3804   17.0531   20.8875 H   0  0  0  0  0  0  0  0  0  0  0  0
   18.7448   17.6318   20.6252 H   0  0  0  0  0  0  0  0  0  0  0  0
   20.2648   19.1612   20.3945 C   0  0  0  0  0  0  0  0  0  0  0  0
   20.3755   18.9510   19.3218 H   0  0  0  0  0  0  0  0  0  0  0  0
   21.2742   19.3820   20.7657 H   0  0  0  0  0  0  0  0  0  0  0  0
   19.3639   20.4032   20.5671 C   0  0  0  0  0  0  0  0  0  0  0  0
   19.7544   21.2456   19.9818 H   0  0  0  0  0  0  0  0  0  0  0  0
   19.3194   20.7200   21.6170 H   0  0  0  0  0  0  0  0  0  0  0  0
   18.3414   20.1976   20.2249 H   0  0  0  0  0  0  0  0  0  0  0  0
  1  2  1  0  0  0  0
  1  3  2  0  0  0  0
  1  4  1  0  0  0  0
  4  5  1  0  0  0  0
  4  6  1  0  0  0  0
  4  7  1  0  0  0  0
  7  8  1  0  0  0  0
  7  9  1  0  0  0  0
  7 10  1  0  0  0  0
 10 11  1  0  0  0  0
 10 12  1  0  0  0  0
 10 13  1  0  0  0  0
 13 14  1  0  0  0  0
 13 15  1  0  0  0  0
 13 16  1  0  0  0  0
 16 17  1  0  0  0  0
 16 18  1  0  0  0  0
 16 19  1  0  0  0  0
 19 20  1  0  0  0  0
 19 21  1  0  0  0  0
 19 22  1  0  0  0  0
M  END
> <VM2 Rank>
29

> <Conf_Id>
371

> <Probability>
0.08

> <Sum Probability>
98.96

> <Delta G>
3.583

> <G>
-13.415

> <E>
-33.718

> <-TS>
20.303

> <U+W>
-51.603

> <U>
10.394

> <W>
-61.996

> <W(PB)>
-64.210

> <W(SA)>
2.214

> <Valence>
8.285

> <Coulomb>
1.520

> <VdW>
0.589

> <VdW6>
-9.071

> <VdW12>
9.660

> <Bond>
0.194

> <Angle>
3.031

> <Pdih>
5.059

> <Idih>
0.001

> <Tether>
0.000

$$$$
VeraChem MOL file


 22 21  0  0  0  0  0  0  0  0999 V2000     
   19.9079   18.8057   25.4499 C   0  0  0  0  0  0  0  0  0  0  0  0
   19.7493   19.5641   26.3864 O   0  5  0  0  0  0  0  0  0  0  0  0
   20.8539   18.0493   25.3510 O   0  0  0  0  0  0  0  0  0  0  0  0
   18.8447   18.7835   24.3552 C   0  0  0  0  0  0  0  0  0  0  0  0
   17.8710   18.6816   24.8481 H   0  0  0  0  0  0  0  0  0  0  0  0
   18.9822   17.8801   23.7498 H   0  0  0  0  0  0  0  0  0  0  0  0
   18.8352   20.0486   23.4544 C   0  0  0  0  0  0  0  0  0  0  0  0
   17.9985   19.9826   22.7469 H   0  0  0  0  0  0  0  0  0  0  0  0
   18.6291   20.9261   24.0827 H   0  0  0  0  0  0  0  0  0  0  0  0
   20.1559   20.2934   22.6797 C   0  0  0  0  0  0  0  0  0  0  0  0
   20.9614   20.4915   23.4001 H   0  0  0  0  0  0  0  0  0  0  0  0
   20.0511   21.2111   22.0852 H   0  0  0  0  0  0  0  0  0  0  0  0
   20.5996   19.1392   21.7463 C   0  0  0  0  0  0  0  0  0  0  0  0
   21.5487   19.4241   21.2724 H   0  0  0  0  0  0  0  0  0  0  0  0
   20.8157   18.2407   22.3398 H   0  0  0  0  0  0  0  0  0  0  0  0
   19.5691   18.8047   20.6445 C   0  0  0  0  0  0  0  0  0  0  0  0
   19.3213   19.7144   20.0805 H   0  0  0  0  0  0  0  0  0  0  0  0
   18.6365   18.4439   21.0980 H   0  0  0  0  0  0  0  0  0  0  0  0
   20.1044   17.7305   19.6765 C   0  0  0  0  0  0  0  0  0  0  0  0
   20.3348   16.8002   20.2120 H   0  0  0  0  0  0  0  0  0  0  0  0
   21.0190   18.0735   19.1754 H   0  0  0  0  0  0  0  0  0  0  0  0
   19.3599   17.5013   18.9031 H   0  0  0  0  0  0  0  0  0  0  0  0
  1  2  1  0  0  0  0
  1  3  2  0  0  0  0
  1  4  1  0  0  0  0
  4  5  1  0  0  0  0
  4  6  1  0  0  0  0
  4  7  1  0  0  0  0
  7  8  1  0  0  0  0
  7  9  1  0  0  0  0
  7 10  1  0  0  0  0
 10 11  1  0  0  0  0
 10 12  1  0  0  0  0
 10 13  1  0  0  0  0
 13 14  1  0  0  0  0
 13 15  1  0  0  0  0
 13 16  1  0  0  0  0
 16 17  1  0  0  0  0
 16 18  1  0  0  0  0
 16 19  1  0  0  0  0
 19 20  1  0  0  0  0
 19 21  1  0  0  0  0
 19 22  1  0  0  0  0
M  END
> <VM2 Rank>
30

> <Conf_Id>
273

> <Probability>
0.08

> <Sum Probability>
99.04

> <Delta G>
3.601

> <G>
-13.397

> <E>
-33.803

> <-TS>
20.406

> <U+W>
-51.688

> <U>
10.054

> <W>
-61.742

> <W(PB)>
-63.970

> <W(SA)>
2.228

> <Valence>
8.321

> <Coulomb>
1.289

> <VdW>
0.445

> <VdW6>
-9.397

> <VdW12>
9.842

> <Bond>
0.210

> <Angle>
3.152

> <Pdih>
4.957

> <Idih>
0.001

> <Tether>
0.000

$$$$
VeraChem MOL file


 22 21  0  0  0  0  0  0  0  0999 V2000     
   20.0208   18.9478   25.5173 C   0  0  0  0  0  0  0  0  0  0  0  0
   20.3772   19.8726   26.2209 O   0  5  0  0  0  0  0  0  0  0  0  0
   20.6452   17.9116   25.4022 O   0  0  0  0  0  0  0  0  0  0  0  0
   18.7021   19.0859   24.7616 C   0  0  0  0  0  0  0  0  0  0  0  0
   17.9453   19.4112   25.4849 H   0  0  0  0  0  0  0  0  0  0  0  0
   18.3908   18.0946   24.4139 H   0  0  0  0  0  0  0  0  0  0  0  0
   18.7488   20.0938   23.5804 C   0  0  0  0  0  0  0  0  0  0  0  0
   17.7487   20.1717   23.1332 H   0  0  0  0  0  0  0  0  0  0  0  0
   18.9856   21.0901   23.9789 H   0  0  0  0  0  0  0  0  0  0  0  0
   19.7756   19.7446   22.4748 C   0  0  0  0  0  0  0  0  0  0  0  0
   20.7848   19.6995   22.9066 H   0  0  0  0  0  0  0  0  0  0  0  0
   19.7858   20.5684   21.7501 H   0  0  0  0  0  0  0  0  0  0  0  0
   19.4646   18.4165   21.7421 C   0  0  0  0  0  0  0  0  0  0  0  0
   19.4803   17.5913   22.4658 H   0  0  0  0  0  0  0  0  0  0  0  0
   18.4488   18.4500   21.3257 H   0  0  0  0  0  0  0  0  0  0  0  0
   20.4743   18.0837   20.6188 C   0  0  0  0  0  0  0  0  0  0  0  0
   20.2694   17.0685   20.2521 H   0  0  0  0  0  0  0  0  0  0  0  0
   21.4931   18.0649   21.0298 H   0  0  0  0  0  0  0  0  0  0  0  0
   20.4113   19.0624   19.4259 C   0  0  0  0  0  0  0  0  0  0  0  0
   20.7275   20.0717   19.7168 H   0  0  0  0  0  0  0  0  0  0  0  0
   19.3927   19.1232   19.0209 H   0  0  0  0  0  0  0  0  0  0  0  0
   21.0758   18.7267   18.6193 H   0  0  0  0  0  0  0  0  0  0  0  0
  1  2  1  0  0  0  0
  1  3  2  0  0  0  0
  1  4  1  0  0  0  0
  4  5  1  0  0  0  0
  4  6  1  0  0  0  0
  4  7  1  0  0  0  0
  7  8  1  0  0  0  0
  7  9  1  0  0  0  0
  7 10  1  0  0  0  0
 10 11  1  0  0  0  0
 10 12  1  0  0  0  0
 10 13  1  0  0  0  0
 13 14  1  0  0  0  0
 13 15  1  0  0  0  0
 13 16  1  0  0  0  0
 16 17  1  0  0  0  0
 16 18  1  0  0  0  0
 16 19  1  0  0  0  0
 19 20  1  0  0  0  0
 19 21  1  0  0  0  0
 19 22  1  0  0  0  0
M  END
> <VM2 Rank>
31

> <Conf_Id>
198

> <Probability>
0.08

> <Sum Probability>
99.12

> <Delta G>
3.610

> <G>
-13.388

> <E>
-33.472

> <-TS>
20.083

> <U+W>
-51.356

> <U>
10.428

> <W>
-61.784

> <W(PB)>
-64.014

> <W(SA)>
2.230

> <Valence>
8.445

> <Coulomb>
1.306

> <VdW>
0.676

> <VdW6>
-8.929

> <VdW12>
9.604

> <Bond>
0.209

> <Angle>
3.066

> <Pdih>
5.170

> <Idih>
0.001

> <Tether>
0.000

$$$$
VeraChem MOL file


 22 21  0  0  0  0  0  0  0  0999 V2000     
   19.6731   18.8803   25.5139 C   0  0  0  0  0  0  0  0  0  0  0  0
   18.9839   19.6020   26.2078 O   0  5  0  0  0  0  0  0  0  0  0  0
   19.4842   17.6862   25.3913 O   0  0  0  0  0  0  0  0  0  0  0  0
   20.8580   19.5046   24.7821 C   0  0  0  0  0  0  0  0  0  0  0  0
   21.5241   18.7030   24.4437 H   0  0  0  0  0  0  0  0  0  0  0  0
   21.4247   20.0869   25.5180 H   0  0  0  0  0  0  0  0  0  0  0  0
   20.4591   20.4260   23.5967 C   0  0  0  0  0  0  0  0  0  0  0  0
   19.8594   21.2598   23.9872 H   0  0  0  0  0  0  0  0  0  0  0  0
   21.3655   20.8742   23.1677 H   0  0  0  0  0  0  0  0  0  0  0  0
   19.6582   19.7218   22.4736 C   0  0  0  0  0  0  0  0  0  0  0  0
   19.3537   20.4846   21.7460 H   0  0  0  0  0  0  0  0  0  0  0  0
   18.7316   19.3006   22.8870 H   0  0  0  0  0  0  0  0  0  0  0  0
   20.4572   18.6094   21.7514 C   0  0  0  0  0  0  0  0  0  0  0  0
   21.3940   19.0224   21.3535 H   0  0  0  0  0  0  0  0  0  0  0  0
   20.7386   17.8358   22.4776 H   0  0  0  0  0  0  0  0  0  0  0  0
   19.6663   17.9267   20.6111 C   0  0  0  0  0  0  0  0  0  0  0  0
   18.7214   17.5262   21.0036 H   0  0  0  0  0  0  0  0  0  0  0  0
   20.2431   17.0634   20.2517 H   0  0  0  0  0  0  0  0  0  0  0  0
   19.3798   18.8620   19.4161 C   0  0  0  0  0  0  0  0  0  0  0  0
   18.7033   19.6784   19.6977 H   0  0  0  0  0  0  0  0  0  0  0  0
   18.9042   18.3048   18.5987 H   0  0  0  0  0  0  0  0  0  0  0  0
   20.3086   19.3014   19.0295 H   0  0  0  0  0  0  0  0  0  0  0  0
  1  2  1  0  0  0  0
  1  3  2  0  0  0  0
  1  4  1  0  0  0  0
  4  5  1  0  0  0  0
  4  6  1  0  0  0  0
  4  7  1  0  0  0  0
  7  8  1  0  0  0  0
  7  9  1  0  0  0  0
  7 10  1  0  0  0  0
 10 11  1  0  0  0  0
 10 12  1  0  0  0  0
 10 13  1  0  0  0  0
 13 14  1  0  0  0  0
 13 15  1  0  0  0  0
 13 16  1  0  0  0  0
 16 17  1  0  0  0  0
 16 18  1  0  0  0  0
 16 19  1  0  0  0  0
 19 20  1  0  0  0  0
 19 21  1  0  0  0  0
 19 22  1  0  0  0  0
M  END
> <VM2 Rank>
32

> <Conf_Id>
83

> <Probability>
0.08

> <Sum Probability>
99.20

> <Delta G>
3.611

> <G>
-13.387

> <E>
-33.469

> <-TS>
20.083

> <U+W>
-51.354

> <U>
10.427

> <W>
-61.781

> <W(PB)>
-64.012

> <W(SA)>
2.231

> <Valence>
8.446

> <Coulomb>
1.305

> <VdW>
0.676

> <VdW6>
-8.928

> <VdW12>
9.604

> <Bond>
0.209

> <Angle>
3.066

> <Pdih>
5.170

> <Idih>
0.001

> <Tether>
0.000

$$$$
VeraChem MOL file


 22 21  0  0  0  0  0  0  0  0999 V2000     
   20.1428   19.0122   25.4414 C   0  0  0  0  0  0  0  0  0  0  0  0
   19.4497   19.3007   26.3973 O   0  5  0  0  0  0  0  0  0  0  0  0
   20.7681   17.9738   25.3542 O   0  0  0  0  0  0  0  0  0  0  0  0
   20.2558   20.0238   24.3042 C   0  0  0  0  0  0  0  0  0  0  0  0
   21.1088   19.7495   23.6730 H   0  0  0  0  0  0  0  0  0  0  0  0
   20.5008   20.9933   24.7531 H   0  0  0  0  0  0  0  0  0  0  0  0
   18.9665   20.1641   23.4496 C   0  0  0  0  0  0  0  0  0  0  0  0
   18.1487   20.5039   24.1000 H   0  0  0  0  0  0  0  0  0  0  0  0
   19.1097   20.9594   22.7068 H   0  0  0  0  0  0  0  0  0  0  0  0
   18.5241   18.8590   22.7386 C   0  0  0  0  0  0  0  0  0  0  0  0
   17.6038   19.0599   22.1735 H   0  0  0  0  0  0  0  0  0  0  0  0
   18.2545   18.1121   23.4978 H   0  0  0  0  0  0  0  0  0  0  0  0
   19.5734   18.2372   21.7834 C   0  0  0  0  0  0  0  0  0  0  0  0
   20.4605   17.9284   22.3526 H   0  0  0  0  0  0  0  0  0  0  0  0
   19.1508   17.3164   21.3589 H   0  0  0  0  0  0  0  0  0  0  0  0
   19.9914   19.1759   20.6293 C   0  0  0  0  0  0  0  0  0  0  0  0
   20.4863   20.0698   21.0313 H   0  0  0  0  0  0  0  0  0  0  0  0
   19.0984   19.5186   20.0886 H   0  0  0  0  0  0  0  0  0  0  0  0
   20.9482   18.4723   19.6460 C   0  0  0  0  0  0  0  0  0  0  0  0
   21.8627   18.1432   20.1567 H   0  0  0  0  0  0  0  0  0  0  0  0
   21.2388   19.1529   18.8352 H   0  0  0  0  0  0  0  0  0  0  0  0
   20.4713   17.5922   19.1951 H   0  0  0  0  0  0  0  0  0  0  0  0
  1  2  1  0  0  0  0
  1  3  2  0  0  0  0
  1  4  1  0  0  0  0
  4  5  1  0  0  0  0
  4  6  1  0  0  0  0
  4  7  1  0  0  0  0
  7  8  1  0  0  0  0
  7  9  1  0  0  0  0
  7 10  1  0  0  0  0
 10 11  1  0  0  0  0
 10 12  1  0  0  0  0
 10 13  1  0  0  0  0
 13 14  1  0  0  0  0
 13 15  1  0  0  0  0
 13 16  1  0  0  0  0
 16 17  1  0  0  0  0
 16 18  1  0  0  0  0
 16 19  1  0  0  0  0
 19 20  1  0  0  0  0
 19 21  1  0  0  0  0
 19 22  1  0  0  0  0
M  END
> <VM2 Rank>
33

> <Conf_Id>
141

> <Probability>
0.08

> <Sum Probability>
99.28

> <Delta G>
3.617

> <G>
-13.381

> <E>
-33.787

> <-TS>
20.405

> <U+W>
-51.672

> <U>
10.053

> <W>
-61.725

> <W(PB)>
-63.942

> <W(SA)>
2.217

> <Valence>
8.321

> <Coulomb>
1.288

> <VdW>
0.445

> <VdW6>
-9.397

> <VdW12>
9.842

> <Bond>
0.210

> <Angle>
3.152

> <Pdih>
4.957

> <Idih>
0.001

> <Tether>
0.000

$$$$
VeraChem MOL file


 22 21  0  0  0  0  0  0  0  0999 V2000     
   19.5611   19.4551   25.6327 C   0  0  0  0  0  0  0  0  0  0  0  0
   20.2018   20.4413   25.9387 O   0  5  0  0  0  0  0  0  0  0  0  0
   18.9726   18.7593   26.4365 O   0  0  0  0  0  0  0  0  0  0  0  0
   19.5117   19.0555   24.1624 C   0  0  0  0  0  0  0  0  0  0  0  0
   19.5359   19.9759   23.5681 H   0  0  0  0  0  0  0  0  0  0  0  0
   18.5490   18.5654   23.9744 H   0  0  0  0  0  0  0  0  0  0  0  0
   20.6782   18.1206   23.7549 C   0  0  0  0  0  0  0  0  0  0  0  0
   21.6297   18.6569   23.8745 H   0  0  0  0  0  0  0  0  0  0  0  0
   20.7123   17.2746   24.4553 H   0  0  0  0  0  0  0  0  0  0  0  0
   20.5750   17.5612   22.3137 C   0  0  0  0  0  0  0  0  0  0  0  0
   19.6743   16.9403   22.2134 H   0  0  0  0  0  0  0  0  0  0  0  0
   21.4244   16.8812   22.1615 H   0  0  0  0  0  0  0  0  0  0  0  0
   20.6130   18.6373   21.1991 C   0  0  0  0  0  0  0  0  0  0  0  0
   21.1768   19.5158   21.5416 H   0  0  0  0  0  0  0  0  0  0  0  0
   21.1696   18.2320   20.3429 H   0  0  0  0  0  0  0  0  0  0  0  0
   19.2096   19.0571   20.7042 C   0  0  0  0  0  0  0  0  0  0  0  0
   18.6060   19.4419   21.5348 H   0  0  0  0  0  0  0  0  0  0  0  0
   18.6801   18.1779   20.3119 H   0  0  0  0  0  0  0  0  0  0  0  0
   19.2970   20.1317   19.6019 C   0  0  0  0  0  0  0  0  0  0  0  0
   19.7938   21.0368   19.9751 H   0  0  0  0  0  0  0  0  0  0  0  0
   18.2940   20.4137   19.2563 H   0  0  0  0  0  0  0  0  0  0  0  0
   19.8623   19.7620   18.7364 H   0  0  0  0  0  0  0  0  0  0  0  0
  1  2  1  0  0  0  0
  1  3  2  0  0  0  0
  1  4  1  0  0  0  0
  4  5  1  0  0  0  0
  4  6  1  0  0  0  0
  4  7  1  0  0  0  0
  7  8  1  0  0  0  0
  7  9  1  0  0  0  0
  7 10  1  0  0  0  0
 10 11  1  0  0  0  0
 10 12  1  0  0  0  0
 10 13  1  0  0  0  0
 13 14  1  0  0  0  0
 13 15  1  0  0  0  0
 13 16  1  0  0  0  0
 16 17  1  0  0  0  0
 16 18  1  0  0  0  0
 16 19  1  0  0  0  0
 19 20  1  0  0  0  0
 19 21  1  0  0  0  0
 19 22  1  0  0  0  0
M  END
> <VM2 Rank>
34

> <Conf_Id>
6

> <Probability>
0.06

> <Sum Probability>
99.34

> <Delta G>
3.781

> <G>
-13.217

> <E>
-33.157

> <-TS>
19.940

> <U+W>
-51.042

> <U>
10.045

> <W>
-61.086

> <W(PB)>
-63.356

> <W(SA)>
2.270

> <Valence>
10.100

> <Coulomb>
-0.883

> <VdW>
0.828

> <VdW6>
-8.177

> <VdW12>
9.004

> <Bond>
0.182

> <Angle>
2.988

> <Pdih>
6.930

> <Idih>
0.001

> <Tether>
0.000

$$$$
VeraChem MOL file


 22 21  0  0  0  0  0  0  0  0999 V2000     
   20.0532   18.7868   25.3436 C   0  0  0  0  0  0  0  0  0  0  0  0
   19.1662   18.4789   26.1155 O   0  5  0  0  0  0  0  0  0  0  0  0
   20.9810   18.0551   25.0599 O   0  0  0  0  0  0  0  0  0  0  0  0
   20.0165   20.1820   24.7258 C   0  0  0  0  0  0  0  0  0  0  0  0
   20.9917   20.3904   24.2710 H   0  0  0  0  0  0  0  0  0  0  0  0
   19.8976   20.8984   25.5469 H   0  0  0  0  0  0  0  0  0  0  0  0
   18.8750   20.3903   23.6932 C   0  0  0  0  0  0  0  0  0  0  0  0
   17.9107   20.2403   24.1980 H   0  0  0  0  0  0  0  0  0  0  0  0
   18.8843   21.4342   23.3519 H   0  0  0  0  0  0  0  0  0  0  0  0
   18.9460   19.4512   22.4641 C   0  0  0  0  0  0  0  0  0  0  0  0
   18.0643   19.6329   21.8349 H   0  0  0  0  0  0  0  0  0  0  0  0
   18.8790   18.4077   22.7995 H   0  0  0  0  0  0  0  0  0  0  0  0
   20.2241   19.6501   21.6137 C   0  0  0  0  0  0  0  0  0  0  0  0
   20.3504   20.7200   21.3993 H   0  0  0  0  0  0  0  0  0  0  0  0
   21.1069   19.3378   22.1875 H   0  0  0  0  0  0  0  0  0  0  0  0
   20.1930   18.8789   20.2737 C   0  0  0  0  0  0  0  0  0  0  0  0
   21.0830   19.1507   19.6895 H   0  0  0  0  0  0  0  0  0  0  0  0
   19.3239   19.1974   19.6818 H   0  0  0  0  0  0  0  0  0  0  0  0
   20.1648   17.3458   20.4544 C   0  0  0  0  0  0  0  0  0  0  0  0
   21.0082   17.0079   21.0707 H   0  0  0  0  0  0  0  0  0  0  0  0
   20.2329   16.8424   19.4813 H   0  0  0  0  0  0  0  0  0  0  0  0
   19.2349   17.0170   20.9350 H   0  0  0  0  0  0  0  0  0  0  0  0
  1  2  1  0  0  0  0
  1  3  2  0  0  0  0
  1  4  1  0  0  0  0
  4  5  1  0  0  0  0
  4  6  1  0  0  0  0
  4  7  1  0  0  0  0
  7  8  1  0  0  0  0
  7  9  1  0  0  0  0
  7 10  1  0  0  0  0
 10 11  1  0  0  0  0
 10 12  1  0  0  0  0
 10 13  1  0  0  0  0
 13 14  1  0  0  0  0
 13 15  1  0  0  0  0
 13 16  1  0  0  0  0
 16 17  1  0  0  0  0
 16 18  1  0  0  0  0
 16 19  1  0  0  0  0
 19 20  1  0  0  0  0
 19 21  1  0  0  0  0
 19 22  1  0  0  0  0
M  END
> <VM2 Rank>
35

> <Conf_Id>
55

> <Probability>
0.06

> <Sum Probability>
99.39

> <Delta G>
3.789

> <G>
-13.209

> <E>
-33.371

> <-TS>
20.162

> <U+W>
-51.256

> <U>
10.893

> <W>
-62.149

> <W(PB)>
-64.367

> <W(SA)>
2.218

> <Valence>
8.348

> <Coulomb>
2.011

> <VdW>
0.534

> <VdW6>
-9.124

> <VdW12>
9.658

> <Bond>
0.201

> <Angle>
2.939

> <Pdih>
5.207

> <Idih>
0.002

> <Tether>
0.000

$$$$
VeraChem MOL file


 22 21  0  0  0  0  0  0  0  0999 V2000     
   20.2732   18.9624   25.2360 C   0  0  0  0  0  0  0  0  0  0  0  0
   20.7593   20.0451   25.4984 O   0  5  0  0  0  0  0  0  0  0  0  0
   20.9147   17.9308   25.1998 O   0  0  0  0  0  0  0  0  0  0  0  0
   18.7648   18.8805   25.0091 C   0  0  0  0  0  0  0  0  0  0  0  0
   18.2946   19.1807   25.9526 H   0  0  0  0  0  0  0  0  0  0  0  0
   18.4861   17.8335   24.8389 H   0  0  0  0  0  0  0  0  0  0  0  0
   18.2163   19.7767   23.8633 C   0  0  0  0  0  0  0  0  0  0  0  0
   17.1403   19.9203   24.0310 H   0  0  0  0  0  0  0  0  0  0  0  0
   18.6671   20.7772   23.9216 H   0  0  0  0  0  0  0  0  0  0  0  0
   18.3979   19.1945   22.4396 C   0  0  0  0  0  0  0  0  0  0  0  0
   17.8410   19.8296   21.7370 H   0  0  0  0  0  0  0  0  0  0  0  0
   17.9379   18.1983   22.3861 H   0  0  0  0  0  0  0  0  0  0  0  0
   19.8696   19.1127   21.9750 C   0  0  0  0  0  0  0  0  0  0  0  0
   20.3586   20.0850   22.1251 H   0  0  0  0  0  0  0  0  0  0  0  0
   20.4137   18.3816   22.5862 H   0  0  0  0  0  0  0  0  0  0  0  0
   19.9774   18.7031   20.4909 C   0  0  0  0  0  0  0  0  0  0  0  0
   19.4440   19.4317   19.8648 H   0  0  0  0  0  0  0  0  0  0  0  0
   19.4873   17.7315   20.3389 H   0  0  0  0  0  0  0  0  0  0  0  0
   21.4467   18.6132   20.0320 C   0  0  0  0  0  0  0  0  0  0  0  0
   21.5052   18.3202   18.9758 H   0  0  0  0  0  0  0  0  0  0  0  0
   21.9971   17.8684   20.6219 H   0  0  0  0  0  0  0  0  0  0  0  0
   21.9528   19.5810   20.1443 H   0  0  0  0  0  0  0  0  0  0  0  0
  1  2  1  0  0  0  0
  1  3  2  0  0  0  0
  1  4  1  0  0  0  0
  4  5  1  0  0  0  0
  4  6  1  0  0  0  0
  4  7  1  0  0  0  0
  7  8  1  0  0  0  0
  7  9  1  0  0  0  0
  7 10  1  0  0  0  0
 10 11  1  0  0  0  0
 10 12  1  0  0  0  0
 10 13  1  0  0  0  0
 13 14  1  0  0  0  0
 13 15  1  0  0  0  0
 13 16  1  0  0  0  0
 16 17  1  0  0  0  0
 16 18  1  0  0  0  0
 16 19  1  0  0  0  0
 19 20  1  0  0  0  0
 19 21  1  0  0  0  0
 19 22  1  0  0  0  0
M  END
> <VM2 Rank>
36

> <Conf_Id>
265

> <Probability>
0.06

> <Sum Probability>
99.45

> <Delta G>
3.798

> <G>
-13.200

> <E>
-33.389

> <-TS>
20.188

> <U+W>
-51.274

> <U>
11.237

> <W>
-62.510

> <W(PB)>
-64.777

> <W(SA)>
2.267

> <Valence>
9.030

> <Coulomb>
1.667

> <VdW>
0.540

> <VdW6>
-8.824

> <VdW12>
9.364

> <Bond>
0.186

> <Angle>
3.195

> <Pdih>
5.641

> <Idih>
0.007

> <Tether>
0.000

$$$$
VeraChem MOL file


 22 21  0  0  0  0  0  0  0  0999 V2000     
   19.5998   18.7443   25.6600 C   0  0  0  0  0  0  0  0  0  0  0  0
   18.9363   19.4317   26.4108 O   0  5  0  0  0  0  0  0  0  0  0  0
   20.3420   17.8593   26.0376 O   0  0  0  0  0  0  0  0  0  0  0  0
   19.5134   19.0228   24.1637 C   0  0  0  0  0  0  0  0  0  0  0  0
   18.5041   19.3902   23.9429 H   0  0  0  0  0  0  0  0  0  0  0  0
   19.6394   18.0678   23.6413 H   0  0  0  0  0  0  0  0  0  0  0  0
   20.5737   20.0445   23.6811 C   0  0  0  0  0  0  0  0  0  0  0  0
   20.5132   20.9403   24.3147 H   0  0  0  0  0  0  0  0  0  0  0  0
   21.5771   19.6249   23.8374 H   0  0  0  0  0  0  0  0  0  0  0  0
   20.4166   20.4777   22.2018 C   0  0  0  0  0  0  0  0  0  0  0  0
   21.1880   21.2320   21.9946 H   0  0  0  0  0  0  0  0  0  0  0  0
   19.4544   20.9880   22.0581 H   0  0  0  0  0  0  0  0  0  0  0  0
   20.5754   19.3300   21.1725 C   0  0  0  0  0  0  0  0  0  0  0  0
   21.0885   19.7264   20.2857 H   0  0  0  0  0  0  0  0  0  0  0  0
   21.2293   18.5463   21.5789 H   0  0  0  0  0  0  0  0  0  0  0  0
   19.2276   18.7244   20.7169 C   0  0  0  0  0  0  0  0  0  0  0  0
   18.6080   19.5086   20.2607 H   0  0  0  0  0  0  0  0  0  0  0  0
   18.6657   18.3413   21.5770 H   0  0  0  0  0  0  0  0  0  0  0  0
   19.4353   17.5844   19.6997 C   0  0  0  0  0  0  0  0  0  0  0  0
   19.9609   17.9457   18.8061 H   0  0  0  0  0  0  0  0  0  0  0  0
   18.4701   17.1699   19.3808 H   0  0  0  0  0  0  0  0  0  0  0  0
   20.0256   16.7696   20.1389 H   0  0  0  0  0  0  0  0  0  0  0  0
  1  2  1  0  0  0  0
  1  3  2  0  0  0  0
  1  4  1  0  0  0  0
  4  5  1  0  0  0  0
  4  6  1  0  0  0  0
  4  7  1  0  0  0  0
  7  8  1  0  0  0  0
  7  9  1  0  0  0  0
  7 10  1  0  0  0  0
 10 11  1  0  0  0  0
 10 12  1  0  0  0  0
 10 13  1  0  0  0  0
 13 14  1  0  0  0  0
 13 15  1  0  0  0  0
 13 16  1  0  0  0  0
 16 17  1  0  0  0  0
 16 18  1  0  0  0  0
 16 19  1  0  0  0  0
 19 20  1  0  0  0  0
 19 21  1  0  0  0  0
 19 22  1  0  0  0  0
M  END
> <VM2 Rank>
37

> <Conf_Id>
364

> <Probability>
0.05

> <Sum Probability>
99.51

> <Delta G>
3.828

> <G>
-13.170

> <E>
-33.110

> <-TS>
19.939

> <U+W>
-50.995

> <U>
10.045

> <W>
-61.040

> <W(PB)>
-63.313

> <W(SA)>
2.273

> <Valence>
10.100

> <Coulomb>
-0.883

> <VdW>
0.828

> <VdW6>
-8.177

> <VdW12>
9.005

> <Bond>
0.182

> <Angle>
2.988

> <Pdih>
6.930

> <Idih>
0.001

> <Tether>
0.000

$$$$
VeraChem MOL file


 22 21  0  0  0  0  0  0  0  0999 V2000     
   20.1990   18.9450   25.3359 C   0  0  0  0  0  0  0  0  0  0  0  0
   20.4694   19.8933   26.0465 O   0  5  0  0  0  0  0  0  0  0  0  0
   20.9905   18.0655   25.0591 O   0  0  0  0  0  0  0  0  0  0  0  0
   18.7772   18.8370   24.7913 C   0  0  0  0  0  0  0  0  0  0  0  0
   18.0941   18.9410   25.6423 H   0  0  0  0  0  0  0  0  0  0  0  0
   18.6285   17.8257   24.3960 H   0  0  0  0  0  0  0  0  0  0  0  0
   18.4252   19.9021   23.7170 C   0  0  0  0  0  0  0  0  0  0  0  0
   17.3704   19.7910   23.4319 H   0  0  0  0  0  0  0  0  0  0  0  0
   18.5190   20.9007   24.1658 H   0  0  0  0  0  0  0  0  0  0  0  0
   19.3063   19.8423   22.4451 C   0  0  0  0  0  0  0  0  0  0  0  0
   20.3556   20.0106   22.7215 H   0  0  0  0  0  0  0  0  0  0  0  0
   19.0218   20.6722   21.7843 H   0  0  0  0  0  0  0  0  0  0  0  0
   19.1732   18.5093   21.6694 C   0  0  0  0  0  0  0  0  0  0  0  0
   19.5851   17.6859   22.2681 H   0  0  0  0  0  0  0  0  0  0  0  0
   18.1084   18.2863   21.5178 H   0  0  0  0  0  0  0  0  0  0  0  0
   19.8733   18.5317   20.2908 C   0  0  0  0  0  0  0  0  0  0  0  0
   19.4555   19.3400   19.6749 H   0  0  0  0  0  0  0  0  0  0  0  0
   19.6484   17.5933   19.7655 H   0  0  0  0  0  0  0  0  0  0  0  0
   21.4058   18.6928   20.3890 C   0  0  0  0  0  0  0  0  0  0  0  0
   21.8420   17.9130   21.0269 H   0  0  0  0  0  0  0  0  0  0  0  0
   21.6791   19.6702   20.8059 H   0  0  0  0  0  0  0  0  0  0  0  0
   21.8653   18.6142   19.3953 H   0  0  0  0  0  0  0  0  0  0  0  0
  1  2  1  0  0  0  0
  1  3  2  0  0  0  0
  1  4  1  0  0  0  0
  4  5  1  0  0  0  0
  4  6  1  0  0  0  0
  4  7  1  0  0  0  0
  7  8  1  0  0  0  0
  7  9  1  0  0  0  0
  7 10  1  0  0  0  0
 10 11  1  0  0  0  0
 10 12  1  0  0  0  0
 10 13  1  0  0  0  0
 13 14  1  0  0  0  0
 13 15  1  0  0  0  0
 13 16  1  0  0  0  0
 16 17  1  0  0  0  0
 16 18  1  0  0  0  0
 16 19  1  0  0  0  0
 19 20  1  0  0  0  0
 19 21  1  0  0  0  0
 19 22  1  0  0  0  0
M  END
> <VM2 Rank>
38

> <Conf_Id>
271

> <Probability>
0.05

> <Sum Probability>
99.56

> <Delta G>
3.834

> <G>
-13.164

> <E>
-33.327

> <-TS>
20.163

> <U+W>
-51.211

> <U>
10.894

> <W>
-62.105

> <W(PB)>
-64.319

> <W(SA)>
2.214

> <Valence>
8.348

> <Coulomb>
2.012

> <VdW>
0.534

> <VdW6>
-9.125

> <VdW12>
9.658

> <Bond>
0.201

> <Angle>
2.939

> <Pdih>
5.206

> <Idih>
0.002

> <Tether>
0.000

$$$$
VeraChem MOL file


 22 21  0  0  0  0  0  0  0  0999 V2000     
   20.2562   19.2790   25.2238 C   0  0  0  0  0  0  0  0  0  0  0  0
   20.7832   20.3678   25.1064 O   0  5  0  0  0  0  0  0  0  0  0  0
   20.8548   18.2779   25.5659 O   0  0  0  0  0  0  0  0  0  0  0  0
   18.7486   19.1809   24.9976 C   0  0  0  0  0  0  0  0  0  0  0  0
   18.3598   20.1758   24.7492 H   0  0  0  0  0  0  0  0  0  0  0  0
   18.3096   18.9048   25.9633 H   0  0  0  0  0  0  0  0  0  0  0  0
   18.3042   18.1461   23.9258 C   0  0  0  0  0  0  0  0  0  0  0  0
   18.8596   17.2072   24.0585 H   0  0  0  0  0  0  0  0  0  0  0  0
   17.2492   17.9010   24.1084 H   0  0  0  0  0  0  0  0  0  0  0  0
   18.4281   18.6341   22.4611 C   0  0  0  0  0  0  0  0  0  0  0  0
   17.8641   19.5682   22.3337 H   0  0  0  0  0  0  0  0  0  0  0  0
   17.9454   17.8912   21.8114 H   0  0  0  0  0  0  0  0  0  0  0  0
   19.8844   18.8376   21.9856 C   0  0  0  0  0  0  0  0  0  0  0  0
   20.3444   19.6673   22.5370 H   0  0  0  0  0  0  0  0  0  0  0  0
   20.4743   17.9376   22.2073 H   0  0  0  0  0  0  0  0  0  0  0  0
   19.9538   19.1420   20.4741 C   0  0  0  0  0  0  0  0  0  0  0  0
   19.3628   20.0410   20.2505 H   0  0  0  0  0  0  0  0  0  0  0  0
   19.5041   18.3148   19.9076 H   0  0  0  0  0  0  0  0  0  0  0  0
   21.4068   19.3536   20.0037 C   0  0  0  0  0  0  0  0  0  0  0  0
   21.8717   20.1959   20.5327 H   0  0  0  0  0  0  0  0  0  0  0  0
   21.4379   19.5699   18.9279 H   0  0  0  0  0  0  0  0  0  0  0  0
   22.0133   18.4571   20.1873 H   0  0  0  0  0  0  0  0  0  0  0  0
  1  2  1  0  0  0  0
  1  3  2  0  0  0  0
  1  4  1  0  0  0  0
  4  5  1  0  0  0  0
  4  6  1  0  0  0  0
  4  7  1  0  0  0  0
  7  8  1  0  0  0  0
  7  9  1  0  0  0  0
  7 10  1  0  0  0  0
 10 11  1  0  0  0  0
 10 12  1  0  0  0  0
 10 13  1  0  0  0  0
 13 14  1  0  0  0  0
 13 15  1  0  0  0  0
 13 16  1  0  0  0  0
 16 17  1  0  0  0  0
 16 18  1  0  0  0  0
 16 19  1  0  0  0  0
 19 20  1  0  0  0  0
 19 21  1  0  0  0  0
 19 22  1  0  0  0  0
M  END
> <VM2 Rank>
39

> <Conf_Id>
269

> <Probability>
0.05

> <Sum Probability>
99.62

> <Delta G>
3.841

> <G>
-13.157

> <E>
-33.345

> <-TS>
20.188

> <U+W>
-51.230

> <U>
11.237

> <W>
-62.466

> <W(PB)>
-64.732

> <W(SA)>
2.265

> <Valence>
9.029

> <Coulomb>
1.667

> <VdW>
0.540

> <VdW6>
-8.824

> <VdW12>
9.364

> <Bond>
0.186

> <Angle>
3.195

> <Pdih>
5.641

> <Idih>
0.007

> <Tether>
0.000

$$$$
VeraChem MOL file


 22 21  0  0  0  0  0  0  0  0999 V2000     
   20.2410   19.0742   25.6524 C   0  0  0  0  0  0  0  0  0  0  0  0
   19.6695   19.5003   26.6365 O   0  5  0  0  0  0  0  0  0  0  0  0
   21.0467   18.1651   25.6830 O   0  0  0  0  0  0  0  0  0  0  0  0
   19.9139   19.7015   24.3022 C   0  0  0  0  0  0  0  0  0  0  0  0
   20.8167   19.6587   23.6850 H   0  0  0  0  0  0  0  0  0  0  0  0
   19.6906   20.7623   24.4674 H   0  0  0  0  0  0  0  0  0  0  0  0
   18.7185   19.0113   23.5936 C   0  0  0  0  0  0  0  0  0  0  0  0
   18.9115   17.9348   23.4871 H   0  0  0  0  0  0  0  0  0  0  0  0
   17.8404   19.1007   24.2481 H   0  0  0  0  0  0  0  0  0  0  0  0
   18.3762   19.6339   22.2163 C   0  0  0  0  0  0  0  0  0  0  0  0
   18.6505   20.6976   22.2002 H   0  0  0  0  0  0  0  0  0  0  0  0
   17.2852   19.6055   22.0900 H   0  0  0  0  0  0  0  0  0  0  0  0
   19.0041   18.9044   21.0022 C   0  0  0  0  0  0  0  0  0  0  0  0
   18.6440   17.8669   20.9738 H   0  0  0  0  0  0  0  0  0  0  0  0
   18.6354   19.3831   20.0848 H   0  0  0  0  0  0  0  0  0  0  0  0
   20.5482   18.9108   20.9845 C   0  0  0  0  0  0  0  0  0  0  0  0
   20.9328   18.3243   21.8292 H   0  0  0  0  0  0  0  0  0  0  0  0
   20.9175   19.9384   21.1053 H   0  0  0  0  0  0  0  0  0  0  0  0
   21.1019   18.3175   19.6733 C   0  0  0  0  0  0  0  0  0  0  0  0
   20.7673   17.2804   19.5398 H   0  0  0  0  0  0  0  0  0  0  0  0
   22.1996   18.3213   19.6806 H   0  0  0  0  0  0  0  0  0  0  0  0
   20.7671   18.9006   18.8054 H   0  0  0  0  0  0  0  0  0  0  0  0
  1  2  1  0  0  0  0
  1  3  2  0  0  0  0
  1  4  1  0  0  0  0
  4  5  1  0  0  0  0
  4  6  1  0  0  0  0
  4  7  1  0  0  0  0
  7  8  1  0  0  0  0
  7  9  1  0  0  0  0
  7 10  1  0  0  0  0
 10 11  1  0  0  0  0
 10 12  1  0  0  0  0
 10 13  1  0  0  0  0
 13 14  1  0  0  0  0
 13 15  1  0  0  0  0
 13 16  1  0  0  0  0
 16 17  1  0  0  0  0
 16 18  1  0  0  0  0
 16 19  1  0  0  0  0
 19 20  1  0  0  0  0
 19 21  1  0  0  0  0
 19 22  1  0  0  0  0
M  END
> <VM2 Rank>
40

> <Conf_Id>
125

> <Probability>
0.05

> <Sum Probability>
99.66

> <Delta G>
3.883

> <G>
-13.115

> <E>
-33.060

> <-TS>
19.946

> <U+W>
-50.945

> <U>
10.205

> <W>
-61.150

> <W(PB)>
-63.411

> <W(SA)>
2.261

> <Valence>
10.107

> <Coulomb>
-0.699

> <VdW>
0.797

> <VdW6>
-8.211

> <VdW12>
9.008

> <Bond>
0.191

> <Angle>
3.004

> <Pdih>
6.911

> <Idih>
0.001

> <Tether>
0.000

$$$$
VeraChem MOL file


 22 21  0  0  0  0  0  0  0  0999 V2000     
   20.2344   19.1966   25.6477 C   0  0  0  0  0  0  0  0  0  0  0  0
   20.9374   20.1868   25.6055 O   0  5  0  0  0  0  0  0  0  0  0  0
   19.7081   18.7878   26.6639 O   0  0  0  0  0  0  0  0  0  0  0  0
   19.9822   18.4365   24.3507 C   0  0  0  0  0  0  0  0  0  0  0  0
   19.8736   17.3736   24.5973 H   0  0  0  0  0  0  0  0  0  0  0  0
   20.8777   18.5289   23.7283 H   0  0  0  0  0  0  0  0  0  0  0  0
   18.7224   18.9381   23.5964 C   0  0  0  0  0  0  0  0  0  0  0  0
   17.8564   18.8050   24.2595 H   0  0  0  0  0  0  0  0  0  0  0  0
   18.7990   20.0178   23.4073 H   0  0  0  0  0  0  0  0  0  0  0  0
   18.4547   18.1789   22.2721 C   0  0  0  0  0  0  0  0  0  0  0  0
   17.3675   18.0802   22.1485 H   0  0  0  0  0  0  0  0  0  0  0  0
   18.8418   17.1528   22.3362 H   0  0  0  0  0  0  0  0  0  0  0  0
   19.0056   18.8769   21.0033 C   0  0  0  0  0  0  0  0  0  0  0  0
   18.6942   18.2926   20.1266 H   0  0  0  0  0  0  0  0  0  0  0  0
   18.5362   19.8645   20.8972 H   0  0  0  0  0  0  0  0  0  0  0  0
   20.5415   19.0351   20.9797 C   0  0  0  0  0  0  0  0  0  0  0  0
   21.0185   18.0653   21.1772 H   0  0  0  0  0  0  0  0  0  0  0  0
   20.8574   19.7223   21.7756 H   0  0  0  0  0  0  0  0  0  0  0  0
   21.0336   19.5825   19.6247 C   0  0  0  0  0  0  0  0  0  0  0  0
   20.7670   18.9022   18.8053 H   0  0  0  0  0  0  0  0  0  0  0  0
   22.1253   19.6973   19.6278 H   0  0  0  0  0  0  0  0  0  0  0  0
   20.5900   20.5643   19.4138 H   0  0  0  0  0  0  0  0  0  0  0  0
  1  2  1  0  0  0  0
  1  3  2  0  0  0  0
  1  4  1  0  0  0  0
  4  5  1  0  0  0  0
  4  6  1  0  0  0  0
  4  7  1  0  0  0  0
  7  8  1  0  0  0  0
  7  9  1  0  0  0  0
  7 10  1  0  0  0  0
 10 11  1  0  0  0  0
 10 12  1  0  0  0  0
 10 13  1  0  0  0  0
 13 14  1  0  0  0  0
 13 15  1  0  0  0  0
 13 16  1  0  0  0  0
 16 17  1  0  0  0  0
 16 18  1  0  0  0  0
 16 19  1  0  0  0  0
 19 20  1  0  0  0  0
 19 21  1  0  0  0  0
 19 22  1  0  0  0  0
M  END
> <VM2 Rank>
41

> <Conf_Id>
68

> <Probability>
0.05

> <Sum Probability>
99.71

> <Delta G>
3.908

> <G>
-13.090

> <E>
-33.035

> <-TS>
19.946

> <U+W>
-50.920

> <U>
10.205

> <W>
-61.125

> <W(PB)>
-63.384

> <W(SA)>
2.259

> <Valence>
10.107

> <Coulomb>
-0.699

> <VdW>
0.797

> <VdW6>
-8.212

> <VdW12>
9.009

> <Bond>
0.191

> <Angle>
3.004

> <Pdih>
6.911

> <Idih>
0.001

> <Tether>
0.000

$$$$
VeraChem MOL file


 22 21  0  0  0  0  0  0  0  0999 V2000     
   19.6471   19.3691   25.7715 C   0  0  0  0  0  0  0  0  0  0  0  0
   20.4749   20.1210   26.2470 O   0  5  0  0  0  0  0  0  0  0  0  0
   18.4643   19.4095   26.0469 O   0  0  0  0  0  0  0  0  0  0  0  0
   20.1160   18.3285   24.7608 C   0  0  0  0  0  0  0  0  0  0  0  0
   19.4752   17.4441   24.8597 H   0  0  0  0  0  0  0  0  0  0  0  0
   21.1338   18.0240   25.0330 H   0  0  0  0  0  0  0  0  0  0  0  0
   20.0851   18.8498   23.3029 C   0  0  0  0  0  0  0  0  0  0  0  0
   19.0610   19.1638   23.0625 H   0  0  0  0  0  0  0  0  0  0  0  0
   20.7258   19.7386   23.2206 H   0  0  0  0  0  0  0  0  0  0  0  0
   20.5521   17.7734   22.2978 C   0  0  0  0  0  0  0  0  0  0  0  0
   19.8524   16.9267   22.3184 H   0  0  0  0  0  0  0  0  0  0  0  0
   21.5237   17.3782   22.6244 H   0  0  0  0  0  0  0  0  0  0  0  0
   20.7005   18.2831   20.8423 C   0  0  0  0  0  0  0  0  0  0  0  0
   21.4671   19.0686   20.7943 H   0  0  0  0  0  0  0  0  0  0  0  0
   21.0886   17.4508   20.2394 H   0  0  0  0  0  0  0  0  0  0  0  0
   19.3848   18.7771   20.1906 C   0  0  0  0  0  0  0  0  0  0  0  0
   18.5226   18.2585   20.6320 H   0  0  0  0  0  0  0  0  0  0  0  0
   19.3951   18.5013   19.1270 H   0  0  0  0  0  0  0  0  0  0  0  0
   19.1952   20.3075   20.2843 C   0  0  0  0  0  0  0  0  0  0  0  0
   19.1566   20.6516   21.3240 H   0  0  0  0  0  0  0  0  0  0  0  0
   18.2588   20.6087   19.7970 H   0  0  0  0  0  0  0  0  0  0  0  0
   20.0182   20.8340   19.7838 H   0  0  0  0  0  0  0  0  0  0  0  0
  1  2  1  0  0  0  0
  1  3  2  0  0  0  0
  1  4  1  0  0  0  0
  4  5  1  0  0  0  0
  4  6  1  0  0  0  0
  4  7  1  0  0  0  0
  7  8  1  0  0  0  0
  7  9  1  0  0  0  0
  7 10  1  0  0  0  0
 10 11  1  0  0  0  0
 10 12  1  0  0  0  0
 10 13  1  0  0  0  0
 13 14  1  0  0  0  0
 13 15  1  0  0  0  0
 13 16  1  0  0  0  0
 16 17  1  0  0  0  0
 16 18  1  0  0  0  0
 16 19  1  0  0  0  0
 19 20  1  0  0  0  0
 19 21  1  0  0  0  0
 19 22  1  0  0  0  0
M  END
> <VM2 Rank>
42

> <Conf_Id>
343

> <Probability>
0.05

> <Sum Probability>
99.76

> <Delta G>
3.936

> <G>
-13.062

> <E>
-32.971

> <-TS>
19.909

> <U+W>
-50.856

> <U>
10.453

> <W>
-61.309

> <W(PB)>
-63.578

> <W(SA)>
2.270

> <Valence>
10.097

> <Coulomb>
-0.504

> <VdW>
0.859

> <VdW6>
-8.064

> <VdW12>
8.924

> <Bond>
0.175

> <Angle>
2.998

> <Pdih>
6.923

> <Idih>
0.000

> <Tether>
0.000

$$$$
VeraChem MOL file


 22 21  0  0  0  0  0  0  0  0999 V2000     
   19.6762   18.8489   25.7915 C   0  0  0  0  0  0  0  0  0  0  0  0
   18.5040   18.6984   26.0741 O   0  5  0  0  0  0  0  0  0  0  0  0
   20.5803   18.2324   26.3196 O   0  0  0  0  0  0  0  0  0  0  0  0
   20.0308   19.8550   24.7022 C   0  0  0  0  0  0  0  0  0  0  0  0
   21.0072   20.2906   24.9461 H   0  0  0  0  0  0  0  0  0  0  0  0
   19.2952   20.6676   24.7360 H   0  0  0  0  0  0  0  0  0  0  0  0
   20.0642   19.2236   23.2885 C   0  0  0  0  0  0  0  0  0  0  0  0
   20.8000   18.4078   23.2717 H   0  0  0  0  0  0  0  0  0  0  0  0
   19.0823   18.7803   23.0772 H   0  0  0  0  0  0  0  0  0  0  0  0
   20.4131   20.2652   22.2022 C   0  0  0  0  0  0  0  0  0  0  0  0
   21.3334   20.7896   22.4935 H   0  0  0  0  0  0  0  0  0  0  0  0
   19.6236   21.0281   22.1611 H   0  0  0  0  0  0  0  0  0  0  0  0
   20.6234   19.6655   20.7893 C   0  0  0  0  0  0  0  0  0  0  0  0
   20.9193   20.4873   20.1229 H   0  0  0  0  0  0  0  0  0  0  0  0
   21.4726   18.9686   20.7981 H   0  0  0  0  0  0  0  0  0  0  0  0
   19.3735   18.9802   20.1828 C   0  0  0  0  0  0  0  0  0  0  0  0
   19.3576   19.1734   19.1012 H   0  0  0  0  0  0  0  0  0  0  0  0
   18.4572   19.4320   20.5870 H   0  0  0  0  0  0  0  0  0  0  0  0
   19.3545   17.4498   20.3938 C   0  0  0  0  0  0  0  0  0  0  0  0
   20.2330   16.9813   19.9314 H   0  0  0  0  0  0  0  0  0  0  0  0
   18.4595   17.0103   19.9350 H   0  0  0  0  0  0  0  0  0  0  0  0
   19.3500   17.1839   21.4569 H   0  0  0  0  0  0  0  0  0  0  0  0
  1  2  1  0  0  0  0
  1  3  2  0  0  0  0
  1  4  1  0  0  0  0
  4  5  1  0  0  0  0
  4  6  1  0  0  0  0
  4  7  1  0  0  0  0
  7  8  1  0  0  0  0
  7  9  1  0  0  0  0
  7 10  1  0  0  0  0
 10 11  1  0  0  0  0
 10 12  1  0  0  0  0
 10 13  1  0  0  0  0
 13 14  1  0  0  0  0
 13 15  1  0  0  0  0
 13 16  1  0  0  0  0
 16 17  1  0  0  0  0
 16 18  1  0  0  0  0
 16 19  1  0  0  0  0
 19 20  1  0  0  0  0
 19 21  1  0  0  0  0
 19 22  1  0  0  0  0
M  END
> <VM2 Rank>
43

> <Conf_Id>
293

> <Probability>
0.04

> <Sum Probability>
99.80

> <Delta G>
3.997

> <G>
-13.001

> <E>
-32.910

> <-TS>
19.909

> <U+W>
-50.795

> <U>
10.452

> <W>
-61.248

> <W(PB)>
-63.525

> <W(SA)>
2.278

> <Valence>
10.097

> <Coulomb>
-0.504

> <VdW>
0.859

> <VdW6>
-8.064

> <VdW12>
8.923

> <Bond>
0.175

> <Angle>
2.998

> <Pdih>
6.924

> <Idih>
0.000

> <Tether>
0.000

$$$$
VeraChem MOL file


 22 21  0  0  0  0  0  0  0  0999 V2000     
   20.0190   18.9165   25.8354 C   0  0  0  0  0  0  0  0  0  0  0  0
   19.0351   18.9925   26.5444 O   0  5  0  0  0  0  0  0  0  0  0  0
   20.9372   18.1471   26.0388 O   0  0  0  0  0  0  0  0  0  0  0  0
   20.0974   19.8244   24.6132 C   0  0  0  0  0  0  0  0  0  0  0  0
   21.1532   20.0565   24.4282 H   0  0  0  0  0  0  0  0  0  0  0  0
   19.5956   20.7685   24.8572 H   0  0  0  0  0  0  0  0  0  0  0  0
   19.4615   19.1910   23.3513 C   0  0  0  0  0  0  0  0  0  0  0  0
   19.9611   18.2382   23.1386 H   0  0  0  0  0  0  0  0  0  0  0  0
   18.4087   18.9542   23.5581 H   0  0  0  0  0  0  0  0  0  0  0  0
   19.5494   20.1352   22.1290 C   0  0  0  0  0  0  0  0  0  0  0  0
   20.5929   20.4242   21.9428 H   0  0  0  0  0  0  0  0  0  0  0  0
   19.0138   21.0626   22.3741 H   0  0  0  0  0  0  0  0  0  0  0  0
   18.9273   19.5342   20.8431 C   0  0  0  0  0  0  0  0  0  0  0  0
   18.1222   18.8326   21.1010 H   0  0  0  0  0  0  0  0  0  0  0  0
   18.4458   20.3483   20.2843 H   0  0  0  0  0  0  0  0  0  0  0  0
   19.9417   18.8532   19.8913 C   0  0  0  0  0  0  0  0  0  0  0  0
   20.6939   19.5865   19.5693 H   0  0  0  0  0  0  0  0  0  0  0  0
   19.4101   18.5393   18.9825 H   0  0  0  0  0  0  0  0  0  0  0  0
   20.6514   17.6248   20.4975 C   0  0  0  0  0  0  0  0  0  0  0  0
   21.2566   17.1166   19.7358 H   0  0  0  0  0  0  0  0  0  0  0  0
   19.9235   16.9026   20.8894 H   0  0  0  0  0  0  0  0  0  0  0  0
   21.3249   17.9191   21.3120 H   0  0  0  0  0  0  0  0  0  0  0  0
  1  2  1  0  0  0  0
  1  3  2  0  0  0  0
  1  4  1  0  0  0  0
  4  5  1  0  0  0  0
  4  6  1  0  0  0  0
  4  7  1  0  0  0  0
  7  8  1  0  0  0  0
  7  9  1  0  0  0  0
  7 10  1  0  0  0  0
 10 11  1  0  0  0  0
 10 12  1  0  0  0  0
 10 13  1  0  0  0  0
 13 14  1  0  0  0  0
 13 15  1  0  0  0  0
 13 16  1  0  0  0  0
 16 17  1  0  0  0  0
 16 18  1  0  0  0  0
 16 19  1  0  0  0  0
 19 20  1  0  0  0  0
 19 21  1  0  0  0  0
 19 22  1  0  0  0  0
M  END
> <VM2 Rank>
44

> <Conf_Id>
75

> <Probability>
0.04

> <Sum Probability>
99.84

> <Delta G>
4.048

> <G>
-12.950

> <E>
-32.858

> <-TS>
19.908

> <U+W>
-50.743

> <U>
10.295

> <W>
-61.038

> <W(PB)>
-63.288

> <W(SA)>
2.250

> <Valence>
10.075

> <Coulomb>
-0.616

> <VdW>
0.835

> <VdW6>
-8.072

> <VdW12>
8.907

> <Bond>
0.176

> <Angle>
2.976

> <Pdih>
6.922

> <Idih>
0.000

> <Tether>
0.000

$$$$
VeraChem MOL file


 22 21  0  0  0  0  0  0  0  0999 V2000     
   19.9961   19.3429   25.8191 C   0  0  0  0  0  0  0  0  0  0  0  0
   20.8251   20.2201   25.9590 O   0  5  0  0  0  0  0  0  0  0  0  0
   19.0234   19.2155   26.5362 O   0  0  0  0  0  0  0  0  0  0  0  0
   20.1765   18.3581   24.6693 C   0  0  0  0  0  0  0  0  0  0  0  0
   19.7780   17.3870   24.9867 H   0  0  0  0  0  0  0  0  0  0  0  0
   21.2518   18.2273   24.4982 H   0  0  0  0  0  0  0  0  0  0  0  0
   19.4814   18.8214   23.3655 C   0  0  0  0  0  0  0  0  0  0  0  0
   18.4085   18.9590   23.5581 H   0  0  0  0  0  0  0  0  0  0  0  0
   19.8767   19.8033   23.0786 H   0  0  0  0  0  0  0  0  0  0  0  0
   19.6749   17.8015   22.2185 C   0  0  0  0  0  0  0  0  0  0  0  0
   19.2408   16.8435   22.5358 H   0  0  0  0  0  0  0  0  0  0  0  0
   20.7441   17.6127   22.0506 H   0  0  0  0  0  0  0  0  0  0  0  0
   18.9972   18.2325   20.8930 C   0  0  0  0  0  0  0  0  0  0  0  0
   18.6079   17.3313   20.4000 H   0  0  0  0  0  0  0  0  0  0  0  0
   18.1206   18.8615   21.1000 H   0  0  0  0  0  0  0  0  0  0  0  0
   19.9367   18.9435   19.8878 C   0  0  0  0  0  0  0  0  0  0  0  0
   19.3782   19.1285   18.9599 H   0  0  0  0  0  0  0  0  0  0  0  0
   20.7643   18.2724   19.6195 H   0  0  0  0  0  0  0  0  0  0  0  0
   20.5085   20.2834   20.3955 C   0  0  0  0  0  0  0  0  0  0  0  0
   21.2063   20.1259   21.2273 H   0  0  0  0  0  0  0  0  0  0  0  0
   19.7060   20.9515   20.7342 H   0  0  0  0  0  0  0  0  0  0  0  0
   21.0591   20.7938   19.5948 H   0  0  0  0  0  0  0  0  0  0  0  0
  1  2  1  0  0  0  0
  1  3  2  0  0  0  0
  1  4  1  0  0  0  0
  4  5  1  0  0  0  0
  4  6  1  0  0  0  0
  4  7  1  0  0  0  0
  7  8  1  0  0  0  0
  7  9  1  0  0  0  0
  7 10  1  0  0  0  0
 10 11  1  0  0  0  0
 10 12  1  0  0  0  0
 10 13  1  0  0  0  0
 13 14  1  0  0  0  0
 13 15  1  0  0  0  0
 13 16  1  0  0  0  0
 16 17  1  0  0  0  0
 16 18  1  0  0  0  0
 16 19  1  0  0  0  0
 19 20  1  0  0  0  0
 19 21  1  0  0  0  0
 19 22  1  0  0  0  0
M  END
> <VM2 Rank>
45

> <Conf_Id>
133

> <Probability>
0.04

> <Sum Probability>
99.87

> <Delta G>
4.094

> <G>
-12.904

> <E>
-32.812

> <-TS>
19.908

> <U+W>
-50.697

> <U>
10.295

> <W>
-60.992

> <W(PB)>
-63.271

> <W(SA)>
2.279

> <Valence>
10.075

> <Coulomb>
-0.616

> <VdW>
0.835

> <VdW6>
-8.072

> <VdW12>
8.907

> <Bond>
0.176

> <Angle>
2.976

> <Pdih>
6.923

> <Idih>
0.000

> <Tether>
0.000

$$$$
VeraChem MOL file


 22 21  0  0  0  0  0  0  0  0999 V2000     
   19.9452   18.9963   25.4998 C   0  0  0  0  0  0  0  0  0  0  0  0
   19.4133   19.7567   26.2848 O   0  5  0  0  0  0  0  0  0  0  0  0
   19.9194   17.7867   25.6142 O   0  0  0  0  0  0  0  0  0  0  0  0
   20.7129   19.5968   24.3253 C   0  0  0  0  0  0  0  0  0  0  0  0
   21.3537   18.8208   23.8912 H   0  0  0  0  0  0  0  0  0  0  0  0
   21.3837   20.3628   24.7313 H   0  0  0  0  0  0  0  0  0  0  0  0
   19.8081   20.2317   23.2342 C   0  0  0  0  0  0  0  0  0  0  0  0
   19.2246   21.0437   23.6893 H   0  0  0  0  0  0  0  0  0  0  0  0
   20.4393   20.7051   22.4711 H   0  0  0  0  0  0  0  0  0  0  0  0
   18.8304   19.2374   22.5565 C   0  0  0  0  0  0  0  0  0  0  0  0
   18.2175   19.7834   21.8274 H   0  0  0  0  0  0  0  0  0  0  0  0
   18.1263   18.8596   23.3104 H   0  0  0  0  0  0  0  0  0  0  0  0
   19.5006   18.0256   21.8573 C   0  0  0  0  0  0  0  0  0  0  0  0
   19.9794   17.3906   22.6148 H   0  0  0  0  0  0  0  0  0  0  0  0
   18.7157   17.4050   21.4045 H   0  0  0  0  0  0  0  0  0  0  0  0
   20.5423   18.3851   20.7693 C   0  0  0  0  0  0  0  0  0  0  0  0
   20.9659   17.4539   20.3690 H   0  0  0  0  0  0  0  0  0  0  0  0
   21.3820   18.9334   21.2163 H   0  0  0  0  0  0  0  0  0  0  0  0
   19.9478   19.2028   19.6024 C   0  0  0  0  0  0  0  0  0  0  0  0
   19.0952   18.6795   19.1506 H   0  0  0  0  0  0  0  0  0  0  0  0
   20.7016   19.3605   18.8204 H   0  0  0  0  0  0  0  0  0  0  0  0
   19.6069   20.1895   19.9403 H   0  0  0  0  0  0  0  0  0  0  0  0
  1  2  1  0  0  0  0
  1  3  2  0  0  0  0
  1  4  1  0  0  0  0
  4  5  1  0  0  0  0
  4  6  1  0  0  0  0
  4  7  1  0  0  0  0
  7  8  1  0  0  0  0
  7  9  1  0  0  0  0
  7 10  1  0  0  0  0
 10 11  1  0  0  0  0
 10 12  1  0  0  0  0
 10 13  1  0  0  0  0
 13 14  1  0  0  0  0
 13 15  1  0  0  0  0
 13 16  1  0  0  0  0
 16 17  1  0  0  0  0
 16 18  1  0  0  0  0
 16 19  1  0  0  0  0
 19 20  1  0  0  0  0
 19 21  1  0  0  0  0
 19 22  1  0  0  0  0
M  END
> <VM2 Rank>
46

> <Conf_Id>
314

> <Probability>
0.02

> <Sum Probability>
99.89

> <Delta G>
4.561

> <G>
-12.437

> <E>
-33.139

> <-TS>
20.703

> <U+W>
-51.024

> <U>
10.565

> <W>
-61.590

> <W(PB)>
-63.775

> <W(SA)>
2.185

> <Valence>
8.743

> <Coulomb>
1.383

> <VdW>
0.439

> <VdW6>
-10.217

> <VdW12>
10.656

> <Bond>
0.248

> <Angle>
3.453

> <Pdih>
5.041

> <Idih>
0.001

> <Tether>
0.000

$$$$
VeraChem MOL file


 22 21  0  0  0  0  0  0  0  0999 V2000     
   19.7564   18.9566   25.4993 C   0  0  0  0  0  0  0  0  0  0  0  0
   19.9334   19.8659   26.2862 O   0  5  0  0  0  0  0  0  0  0  0  0
   20.2664   17.8596   25.6149 O   0  0  0  0  0  0  0  0  0  0  0  0
   18.8181   19.1988   24.3203 C   0  0  0  0  0  0  0  0  0  0  0  0
   17.8937   19.6297   24.7219 H   0  0  0  0  0  0  0  0  0  0  0  0
   18.5458   18.2311   23.8836 H   0  0  0  0  0  0  0  0  0  0  0  0
   19.3965   20.1452   23.2331 C   0  0  0  0  0  0  0  0  0  0  0  0
   18.6322   20.3255   22.4663 H   0  0  0  0  0  0  0  0  0  0  0  0
   19.6016   21.1230   23.6903 H   0  0  0  0  0  0  0  0  0  0  0  0
   20.6951   19.6291   22.5615 C   0  0  0  0  0  0  0  0  0  0  0  0
   21.4879   19.5658   23.3194 H   0  0  0  0  0  0  0  0  0  0  0  0
   21.0402   20.3763   21.8350 H   0  0  0  0  0  0  0  0  0  0  0  0
   20.5727   18.2508   21.8603 C   0  0  0  0  0  0  0  0  0  0  0  0
   21.5434   17.9990   21.4122 H   0  0  0  0  0  0  0  0  0  0  0  0
   20.3861   17.4761   22.6160 H   0  0  0  0  0  0  0  0  0  0  0  0
   19.4801   18.1619   20.7666 C   0  0  0  0  0  0  0  0  0  0  0  0
   18.4884   18.3255   21.2086 H   0  0  0  0  0  0  0  0  0  0  0  0
   19.4691   17.1394   20.3651 H   0  0  0  0  0  0  0  0  0  0  0  0
   19.7012   19.1510   19.6018 C   0  0  0  0  0  0  0  0  0  0  0  0
   18.9516   18.9929   18.8158 H   0  0  0  0  0  0  0  0  0  0  0  0
   20.6946   19.0155   19.1549 H   0  0  0  0  0  0  0  0  0  0  0  0
   19.6146   20.1911   19.9403 H   0  0  0  0  0  0  0  0  0  0  0  0
  1  2  1  0  0  0  0
  1  3  2  0  0  0  0
  1  4  1  0  0  0  0
  4  5  1  0  0  0  0
  4  6  1  0  0  0  0
  4  7  1  0  0  0  0
  7  8  1  0  0  0  0
  7  9  1  0  0  0  0
  7 10  1  0  0  0  0
 10 11  1  0  0  0  0
 10 12  1  0  0  0  0
 10 13  1  0  0  0  0
 13 14  1  0  0  0  0
 13 15  1  0  0  0  0
 13 16  1  0  0  0  0
 16 17  1  0  0  0  0
 16 18  1  0  0  0  0
 16 19  1  0  0  0  0
 19 20  1  0  0  0  0
 19 21  1  0  0  0  0
 19 22  1  0  0  0  0
M  END
> <VM2 Rank>
47

> <Conf_Id>
191

> <Probability>
0.02

> <Sum Probability>
99.90

> <Delta G>
4.574

> <G>
-12.424

> <E>
-33.128

> <-TS>
20.703

> <U+W>
-51.012

> <U>
10.566

> <W>
-61.579

> <W(PB)>
-63.766

> <W(SA)>
2.187

> <Valence>
8.743

> <Coulomb>
1.385

> <VdW>
0.439

> <VdW6>
-10.218

> <VdW12>
10.657

> <Bond>
0.248

> <Angle>
3.454

> <Pdih>
5.040

> <Idih>
0.001

> <Tether>
0.000

$$$$
VeraChem MOL file


 22 21  0  0  0  0  0  0  0  0999 V2000     
   20.1223   18.9748   25.3947 C   0  0  0  0  0  0  0  0  0  0  0  0
   20.7179   19.9991   25.6655 O   0  5  0  0  0  0  0  0  0  0  0  0
   20.5949   17.8652   25.5453 O   0  0  0  0  0  0  0  0  0  0  0  0
   18.6802   19.0826   24.9027 C   0  0  0  0  0  0  0  0  0  0  0  0
   18.1093   19.5362   25.7211 H   0  0  0  0  0  0  0  0  0  0  0  0
   18.2752   18.0734   24.7599 H   0  0  0  0  0  0  0  0  0  0  0  0
   18.4790   19.9313   23.6155 C   0  0  0  0  0  0  0  0  0  0  0  0
   17.4291   20.2525   23.5837 H   0  0  0  0  0  0  0  0  0  0  0  0
   19.0745   20.8528   23.6765 H   0  0  0  0  0  0  0  0  0  0  0  0
   18.7834   19.1888   22.2904 C   0  0  0  0  0  0  0  0  0  0  0  0
   18.4423   19.8267   21.4655 H   0  0  0  0  0  0  0  0  0  0  0  0
   18.1860   18.2686   22.2368 H   0  0  0  0  0  0  0  0  0  0  0  0
   20.2800   18.8500   22.0874 C   0  0  0  0  0  0  0  0  0  0  0  0
   20.8869   19.7587   22.2000 H   0  0  0  0  0  0  0  0  0  0  0  0
   20.6046   18.1580   22.8740 H   0  0  0  0  0  0  0  0  0  0  0  0
   20.5819   18.1890   20.7220 C   0  0  0  0  0  0  0  0  0  0  0  0
   19.9576   17.2936   20.5965 H   0  0  0  0  0  0  0  0  0  0  0  0
   21.6244   17.8418   20.7240 H   0  0  0  0  0  0  0  0  0  0  0  0
   20.3805   19.1383   19.5205 C   0  0  0  0  0  0  0  0  0  0  0  0
   19.3266   19.4175   19.4003 H   0  0  0  0  0  0  0  0  0  0  0  0
   20.7024   18.6524   18.5903 H   0  0  0  0  0  0  0  0  0  0  0  0
   20.9691   20.0568   19.6427 H   0  0  0  0  0  0  0  0  0  0  0  0
  1  2  1  0  0  0  0
  1  3  2  0  0  0  0
  1  4  1  0  0  0  0
  4  5  1  0  0  0  0
  4  6  1  0  0  0  0
  4  7  1  0  0  0  0
  7  8  1  0  0  0  0
  7  9  1  0  0  0  0
  7 10  1  0  0  0  0
 10 11  1  0  0  0  0
 10 12  1  0  0  0  0
 10 13  1  0  0  0  0
 13 14  1  0  0  0  0
 13 15  1  0  0  0  0
 13 16  1  0  0  0  0
 16 17  1  0  0  0  0
 16 18  1  0  0  0  0
 16 19  1  0  0  0  0
 19 20  1  0  0  0  0
 19 21  1  0  0  0  0
 19 22  1  0  0  0  0
M  END
> <VM2 Rank>
48

> <Conf_Id>
115

> <Probability>
0.01

> <Sum Probability>
99.92

> <Delta G>
4.678

> <G>
-12.320

> <E>
-32.512

> <-TS>
20.192

> <U+W>
-50.397

> <U>
11.648

> <W>
-62.045

> <W(PB)>
-64.292

> <W(SA)>
2.247

> <Valence>
9.667

> <Coulomb>
1.202

> <VdW>
0.779

> <VdW6>
-9.278

> <VdW12>
10.057

> <Bond>
0.225

> <Angle>
3.506

> <Pdih>
5.930

> <Idih>
0.006

> <Tether>
0.000

$$$$
VeraChem MOL file


 22 21  0  0  0  0  0  0  0  0999 V2000     
   20.1772   18.9381   25.3009 C   0  0  0  0  0  0  0  0  0  0  0  0
   20.4598   20.0368   25.7374 O   0  5  0  0  0  0  0  0  0  0  0  0
   20.9593   18.0084   25.2690 O   0  0  0  0  0  0  0  0  0  0  0  0
   18.7448   18.6908   24.8313 C   0  0  0  0  0  0  0  0  0  0  0  0
   18.1052   18.8159   25.7127 H   0  0  0  0  0  0  0  0  0  0  0  0
   18.6480   17.6438   24.5192 H   0  0  0  0  0  0  0  0  0  0  0  0
   18.2435   19.6367   23.7039 C   0  0  0  0  0  0  0  0  0  0  0  0
   17.1454   19.6142   23.7050 H   0  0  0  0  0  0  0  0  0  0  0  0
   18.5247   20.6740   23.9329 H   0  0  0  0  0  0  0  0  0  0  0  0
   18.7220   19.2583   22.2802 C   0  0  0  0  0  0  0  0  0  0  0  0
   18.1947   19.8980   21.5596 H   0  0  0  0  0  0  0  0  0  0  0  0
   18.4201   18.2263   22.0581 H   0  0  0  0  0  0  0  0  0  0  0  0
   20.2463   19.4190   22.0664 C   0  0  0  0  0  0  0  0  0  0  0  0
   20.5634   20.3974   22.4526 H   0  0  0  0  0  0  0  0  0  0  0  0
   20.7881   18.6621   22.6477 H   0  0  0  0  0  0  0  0  0  0  0  0
   20.6695   19.3113   20.5829 C   0  0  0  0  0  0  0  0  0  0  0  0
   21.7436   19.5292   20.5057 H   0  0  0  0  0  0  0  0  0  0  0  0
   20.1535   20.0811   19.9927 H   0  0  0  0  0  0  0  0  0  0  0  0
   20.3976   17.9196   19.9720 C   0  0  0  0  0  0  0  0  0  0  0  0
   19.3225   17.7046   19.9299 H   0  0  0  0  0  0  0  0  0  0  0  0
   20.8838   17.1309   20.5609 H   0  0  0  0  0  0  0  0  0  0  0  0
   20.7882   17.8666   18.9475 H   0  0  0  0  0  0  0  0  0  0  0  0
  1  2  1  0  0  0  0
  1  3  2  0  0  0  0
  1  4  1  0  0  0  0
  4  5  1  0  0  0  0
  4  6  1  0  0  0  0
  4  7  1  0  0  0  0
  7  8  1  0  0  0  0
  7  9  1  0  0  0  0
  7 10  1  0  0  0  0
 10 11  1  0  0  0  0
 10 12  1  0  0  0  0
 10 13  1  0  0  0  0
 13 14  1  0  0  0  0
 13 15  1  0  0  0  0
 13 16  1  0  0  0  0
 16 17  1  0  0  0  0
 16 18  1  0  0  0  0
 16 19  1  0  0  0  0
 19 20  1  0  0  0  0
 19 21  1  0  0  0  0
 19 22  1  0  0  0  0
M  END
> <VM2 Rank>
49

> <Conf_Id>
52

> <Probability>
0.01

> <Sum Probability>
99.93

> <Delta G>
4.683

> <G>
-12.315

> <E>
-32.675

> <-TS>
20.361

> <U+W>
-50.560

> <U>
11.686

> <W>
-62.247

> <W(PB)>
-64.461

> <W(SA)>
2.214

> <Valence>
9.469

> <Coulomb>
1.563

> <VdW>
0.654

> <VdW6>
-9.495

> <VdW12>
10.149

> <Bond>
0.216

> <Angle>
3.352

> <Pdih>
5.895

> <Idih>
0.007

> <Tether>
0.000

$$$$
VeraChem MOL file


 22 21  0  0  0  0  0  0  0  0999 V2000     
   20.1578   19.2977   25.2870 C   0  0  0  0  0  0  0  0  0  0  0  0
   20.8355   20.3010   25.1810 O   0  5  0  0  0  0  0  0  0  0  0  0
   20.5552   18.2724   25.8050 O   0  0  0  0  0  0  0  0  0  0  0  0
   18.7090   19.3531   24.8060 C   0  0  0  0  0  0  0  0  0  0  0  0
   18.5014   20.3566   24.4154 H   0  0  0  0  0  0  0  0  0  0  0  0
   18.0830   19.2275   25.6970 H   0  0  0  0  0  0  0  0  0  0  0  0
   18.3169   18.2755   23.7561 C   0  0  0  0  0  0  0  0  0  0  0  0
   18.7070   17.2950   24.0624 H   0  0  0  0  0  0  0  0  0  0  0  0
   17.2228   18.1799   23.7601 H   0  0  0  0  0  0  0  0  0  0  0  0
   18.7579   18.5934   22.3058 C   0  0  0  0  0  0  0  0  0  0  0  0
   18.3479   19.5670   22.0068 H   0  0  0  0  0  0  0  0  0  0  0  0
   18.3052   17.8477   21.6382 H   0  0  0  0  0  0  0  0  0  0  0  0
   20.2914   18.5813   22.0985 C   0  0  0  0  0  0  0  0  0  0  0  0
   20.7466   19.4341   22.6181 H   0  0  0  0  0  0  0  0  0  0  0  0
   20.7101   17.6749   22.5568 H   0  0  0  0  0  0  0  0  0  0  0  0
   20.7066   18.6203   20.6094 C   0  0  0  0  0  0  0  0  0  0  0  0
   20.2786   17.7569   20.0816 H   0  0  0  0  0  0  0  0  0  0  0  0
   21.7982   18.5137   20.5446 H   0  0  0  0  0  0  0  0  0  0  0  0
   20.2896   19.9243   19.8953 C   0  0  0  0  0  0  0  0  0  0  0  0
   20.6860   20.8031   20.4203 H   0  0  0  0  0  0  0  0  0  0  0  0
   19.1978   20.0189   19.8414 H   0  0  0  0  0  0  0  0  0  0  0  0
   20.6764   19.9406   18.8682 H   0  0  0  0  0  0  0  0  0  0  0  0
  1  2  1  0  0  0  0
  1  3  2  0  0  0  0
  1  4  1  0  0  0  0
  4  5  1  0  0  0  0
  4  6  1  0  0  0  0
  4  7  1  0  0  0  0
  7  8  1  0  0  0  0
  7  9  1  0  0  0  0
  7 10  1  0  0  0  0
 10 11  1  0  0  0  0
 10 12  1  0  0  0  0
 10 13  1  0  0  0  0
 13 14  1  0  0  0  0
 13 15  1  0  0  0  0
 13 16  1  0  0  0  0
 16 17  1  0  0  0  0
 16 18  1  0  0  0  0
 16 19  1  0  0  0  0
 19 20  1  0  0  0  0
 19 21  1  0  0  0  0
 19 22  1  0  0  0  0
M  END
> <VM2 Rank>
50

> <Conf_Id>
151

> <Probability>
0.01

> <Sum Probability>
99.94

> <Delta G>
4.730

> <G>
-12.268

> <E>
-32.628

> <-TS>
20.360

> <U+W>
-50.513

> <U>
11.687

> <W>
-62.200

> <W(PB)>
-64.428

> <W(SA)>
2.228

> <Valence>
9.470

> <Coulomb>
1.563

> <VdW>
0.654

> <VdW6>
-9.495

> <VdW12>
10.149

> <Bond>
0.216

> <Angle>
3.352

> <Pdih>
5.895

> <Idih>
0.007

> <Tether>
0.000

$$$$
VeraChem MOL file


 22 21  0  0  0  0  0  0  0  0999 V2000     
   20.1068   19.2627   25.3836 C   0  0  0  0  0  0  0  0  0  0  0  0
   20.4566   20.4249   25.4472 O   0  5  0  0  0  0  0  0  0  0  0  0
   20.8081   18.3320   25.7292 O   0  0  0  0  0  0  0  0  0  0  0  0
   18.6867   18.9632   24.9073 C   0  0  0  0  0  0  0  0  0  0  0  0
   18.1761   19.9091   24.6895 H   0  0  0  0  0  0  0  0  0  0  0  0
   18.1646   18.5146   25.7603 H   0  0  0  0  0  0  0  0  0  0  0  0
   18.5831   18.0020   23.6895 C   0  0  0  0  0  0  0  0  0  0  0  0
   19.2740   17.1572   23.8182 H   0  0  0  0  0  0  0  0  0  0  0  0
   17.5740   17.5682   23.6867 H   0  0  0  0  0  0  0  0  0  0  0  0
   18.8113   18.6694   22.3103 C   0  0  0  0  0  0  0  0  0  0  0  0
   18.1184   19.5131   22.1890 H   0  0  0  0  0  0  0  0  0  0  0  0
   18.5444   17.9373   21.5380 H   0  0  0  0  0  0  0  0  0  0  0  0
   20.2635   19.1511   22.0759 C   0  0  0  0  0  0  0  0  0  0  0  0
   20.5083   19.9322   22.8059 H   0  0  0  0  0  0  0  0  0  0  0  0
   20.9644   18.3244   22.2554 H   0  0  0  0  0  0  0  0  0  0  0  0
   20.4982   19.7342   20.6627 C   0  0  0  0  0  0  0  0  0  0  0  0
   21.4971   20.1911   20.6339 H   0  0  0  0  0  0  0  0  0  0  0  0
   19.7814   20.5447   20.4714 H   0  0  0  0  0  0  0  0  0  0  0  0
   20.4057   18.6795   19.5384 C   0  0  0  0  0  0  0  0  0  0  0  0
   19.3887   18.2796   19.4441 H   0  0  0  0  0  0  0  0  0  0  0  0
   21.0896   17.8420   19.7282 H   0  0  0  0  0  0  0  0  0  0  0  0
   20.6772   19.1246   18.5724 H   0  0  0  0  0  0  0  0  0  0  0  0
  1  2  1  0  0  0  0
  1  3  2  0  0  0  0
  1  4  1  0  0  0  0
  4  5  1  0  0  0  0
  4  6  1  0  0  0  0
  4  7  1  0  0  0  0
  7  8  1  0  0  0  0
  7  9  1  0  0  0  0
  7 10  1  0  0  0  0
 10 11  1  0  0  0  0
 10 12  1  0  0  0  0
 10 13  1  0  0  0  0
 13 14  1  0  0  0  0
 13 15  1  0  0  0  0
 13 16  1  0  0  0  0
 16 17  1  0  0  0  0
 16 18  1  0  0  0  0
 16 19  1  0  0  0  0
 19 20  1  0  0  0  0
 19 21  1  0  0  0  0
 19 22  1  0  0  0  0
M  END
> <VM2 Rank>
51

> <Conf_Id>
190

> <Probability>
0.01

> <Sum Probability>
99.95

> <Delta G>
4.747

> <G>
-12.251

> <E>
-32.443

> <-TS>
20.192

> <U+W>
-50.328

> <U>
11.648

> <W>
-61.977

> <W(PB)>
-64.190

> <W(SA)>
2.214

> <Valence>
9.667

> <Coulomb>
1.202

> <VdW>
0.779

> <VdW6>
-9.278

> <VdW12>
10.058

> <Bond>
0.225

> <Angle>
3.506

> <Pdih>
5.930

> <Idih>
0.006

> <Tether>
0.000

$$$$
VeraChem MOL file


 22 21  0  0  0  0  0  0  0  0999 V2000     
   20.2206   19.1616   25.6734 C   0  0  0  0  0  0  0  0  0  0  0  0
   20.1918   20.2277   26.2559 O   0  5  0  0  0  0  0  0  0  0  0  0
   20.2977   18.0885   26.2383 O   0  0  0  0  0  0  0  0  0  0  0  0
   20.1336   19.1700   24.1515 C   0  0  0  0  0  0  0  0  0  0  0  0
   20.7237   18.3244   23.7810 H   0  0  0  0  0  0  0  0  0  0  0  0
   20.6085   20.0890   23.7877 H   0  0  0  0  0  0  0  0  0  0  0  0
   18.6763   19.0785   23.6328 C   0  0  0  0  0  0  0  0  0  0  0  0
   18.2418   18.1175   23.9410 H   0  0  0  0  0  0  0  0  0  0  0  0
   18.0782   19.8581   24.1246 H   0  0  0  0  0  0  0  0  0  0  0  0
   18.5355   19.2456   22.0989 C   0  0  0  0  0  0  0  0  0  0  0  0
   18.8791   20.2440   21.8011 H   0  0  0  0  0  0  0  0  0  0  0  0
   17.4635   19.2175   21.8606 H   0  0  0  0  0  0  0  0  0  0  0  0
   19.2427   18.1450   21.2641 C   0  0  0  0  0  0  0  0  0  0  0  0
   19.2878   17.2159   21.8485 H   0  0  0  0  0  0  0  0  0  0  0  0
   18.6237   17.9125   20.3867 H   0  0  0  0  0  0  0  0  0  0  0  0
   20.6637   18.5151   20.7706 C   0  0  0  0  0  0  0  0  0  0  0  0
   21.1448   17.6087   20.3781 H   0  0  0  0  0  0  0  0  0  0  0  0
   21.2872   18.8567   21.6056 H   0  0  0  0  0  0  0  0  0  0  0  0
   20.6581   19.5870   19.6585 C   0  0  0  0  0  0  0  0  0  0  0  0
   20.2623   20.5435   20.0210 H   0  0  0  0  0  0  0  0  0  0  0  0
   20.0472   19.2645   18.8054 H   0  0  0  0  0  0  0  0  0  0  0  0
   21.6778   19.7661   19.2937 H   0  0  0  0  0  0  0  0  0  0  0  0
  1  2  1  0  0  0  0
  1  3  2  0  0  0  0
  1  4  1  0  0  0  0
  4  5  1  0  0  0  0
  4  6  1  0  0  0  0
  4  7  1  0  0  0  0
  7  8  1  0  0  0  0
  7  9  1  0  0  0  0
  7 10  1  0  0  0  0
 10 11  1  0  0  0  0
 10 12  1  0  0  0  0
 10 13  1  0  0  0  0
 13 14  1  0  0  0  0
 13 15  1  0  0  0  0
 13 16  1  0  0  0  0
 16 17  1  0  0  0  0
 16 18  1  0  0  0  0
 16 19  1  0  0  0  0
 19 20  1  0  0  0  0
 19 21  1  0  0  0  0
 19 22  1  0  0  0  0
M  END
> <VM2 Rank>
52

> <Conf_Id>
158

> <Probability>
0.01

> <Sum Probability>
99.96

> <Delta G>
4.833

> <G>
-12.165

> <E>
-32.168

> <-TS>
20.003

> <U+W>
-50.053

> <U>
11.011

> <W>
-61.064

> <W(PB)>
-63.296

> <W(SA)>
2.232

> <Valence>
10.804

> <Coulomb>
-0.760

> <VdW>
0.967

> <VdW6>
-8.670

> <VdW12>
9.637

> <Bond>
0.224

> <Angle>
3.241

> <Pdih>
7.339

> <Idih>
0.001

> <Tether>
0.000

$$$$
VeraChem MOL file


 22 21  0  0  0  0  0  0  0  0999 V2000     
   19.9047   19.0460   25.7127 C   0  0  0  0  0  0  0  0  0  0  0  0
   18.9043   19.5659   26.1664 O   0  5  0  0  0  0  0  0  0  0  0  0
   20.3380   17.9763   26.0936 O   0  0  0  0  0  0  0  0  0  0  0  0
   20.6733   19.7859   24.6213 C   0  0  0  0  0  0  0  0  0  0  0  0
   21.7356   19.7533   24.8905 H   0  0  0  0  0  0  0  0  0  0  0  0
   20.3745   20.8411   24.6354 H   0  0  0  0  0  0  0  0  0  0  0  0
   20.4820   19.1942   23.2004 C   0  0  0  0  0  0  0  0  0  0  0  0
   21.1884   19.6891   22.5222 H   0  0  0  0  0  0  0  0  0  0  0  0
   20.7399   18.1262   23.2118 H   0  0  0  0  0  0  0  0  0  0  0  0
   19.0432   19.3827   22.6660 C   0  0  0  0  0  0  0  0  0  0  0  0
   18.8247   20.4555   22.5771 H   0  0  0  0  0  0  0  0  0  0  0  0
   18.3303   18.9847   23.4011 H   0  0  0  0  0  0  0  0  0  0  0  0
   18.7726   18.6873   21.3082 C   0  0  0  0  0  0  0  0  0  0  0  0
   18.8982   17.6007   21.4101 H   0  0  0  0  0  0  0  0  0  0  0  0
   17.7130   18.8430   21.0635 H   0  0  0  0  0  0  0  0  0  0  0  0
   19.6225   19.2175   20.1265 C   0  0  0  0  0  0  0  0  0  0  0  0
   19.9043   20.2653   20.2994 H   0  0  0  0  0  0  0  0  0  0  0  0
   19.0029   19.2140   19.2191 H   0  0  0  0  0  0  0  0  0  0  0  0
   20.8795   18.3631   19.8489 C   0  0  0  0  0  0  0  0  0  0  0  0
   20.6021   17.3299   19.6029 H   0  0  0  0  0  0  0  0  0  0  0  0
   21.5534   18.3353   20.7126 H   0  0  0  0  0  0  0  0  0  0  0  0
   21.4409   18.7712   18.9986 H   0  0  0  0  0  0  0  0  0  0  0  0
  1  2  1  0  0  0  0
  1  3  2  0  0  0  0
  1  4  1  0  0  0  0
  4  5  1  0  0  0  0
  4  6  1  0  0  0  0
  4  7  1  0  0  0  0
  7  8  1  0  0  0  0
  7  9  1  0  0  0  0
  7 10  1  0  0  0  0
 10 11  1  0  0  0  0
 10 12  1  0  0  0  0
 10 13  1  0  0  0  0
 13 14  1  0  0  0  0
 13 15  1  0  0  0  0
 13 16  1  0  0  0  0
 16 17  1  0  0  0  0
 16 18  1  0  0  0  0
 16 19  1  0  0  0  0
 19 20  1  0  0  0  0
 19 21  1  0  0  0  0
 19 22  1  0  0  0  0
M  END
> <VM2 Rank>
53

> <Conf_Id>
252

> <Probability>
0.00

> <Sum Probability>
99.97

> <Delta G>
5.399

> <G>
-11.599

> <E>
-31.836

> <-TS>
20.238

> <U+W>
-49.721

> <U>
11.773

> <W>
-61.495

> <W(PB)>
-63.748

> <W(SA)>
2.254

> <Valence>
10.419

> <Coulomb>
0.566

> <VdW>
0.789

> <VdW6>
-8.847

> <VdW12>
9.636

> <Bond>
0.200

> <Angle>
3.187

> <Pdih>
7.032

> <Idih>
0.001

> <Tether>
0.000

$$$$
VeraChem MOL file


 22 21  0  0  0  0  0  0  0  0999 V2000     
   19.7160   19.1505   25.7186 C   0  0  0  0  0  0  0  0  0  0  0  0
   19.8237   20.3367   25.9601 O   0  5  0  0  0  0  0  0  0  0  0  0
   20.2897   18.2821   26.3460 O   0  0  0  0  0  0  0  0  0  0  0  0
   18.7949   18.7248   24.5786 C   0  0  0  0  0  0  0  0  0  0  0  0
   18.1107   19.5519   24.3535 H   0  0  0  0  0  0  0  0  0  0  0  0
   18.1797   17.8954   24.9466 H   0  0  0  0  0  0  0  0  0  0  0  0
   19.5422   18.2844   23.2930 C   0  0  0  0  0  0  0  0  0  0  0  0
   20.2432   17.4754   23.5410 H   0  0  0  0  0  0  0  0  0  0  0  0
   18.8148   17.8603   22.5911 H   0  0  0  0  0  0  0  0  0  0  0  0
   20.3094   19.4504   22.6232 C   0  0  0  0  0  0  0  0  0  0  0  0
   21.0672   19.8163   23.3296 H   0  0  0  0  0  0  0  0  0  0  0  0
   19.6334   20.2960   22.4370 H   0  0  0  0  0  0  0  0  0  0  0  0
   21.0229   19.0402   21.3100 C   0  0  0  0  0  0  0  0  0  0  0  0
   21.9747   19.5861   21.2540 H   0  0  0  0  0  0  0  0  0  0  0  0
   21.2912   17.9753   21.3384 H   0  0  0  0  0  0  0  0  0  0  0  0
   20.2291   19.3550   20.0179 C   0  0  0  0  0  0  0  0  0  0  0  0
   20.8573   19.1023   19.1526 H   0  0  0  0  0  0  0  0  0  0  0  0
   20.0410   20.4357   19.9557 H   0  0  0  0  0  0  0  0  0  0  0  0
   18.8920   18.5950   19.8964 C   0  0  0  0  0  0  0  0  0  0  0  0
   18.1733   18.9360   20.6519 H   0  0  0  0  0  0  0  0  0  0  0  0
   19.0406   17.5142   20.0177 H   0  0  0  0  0  0  0  0  0  0  0  0
   18.4413   18.7666   18.9104 H   0  0  0  0  0  0  0  0  0  0  0  0
  1  2  1  0  0  0  0
  1  3  2  0  0  0  0
  1  4  1  0  0  0  0
  4  5  1  0  0  0  0
  4  6  1  0  0  0  0
  4  7  1  0  0  0  0
  7  8  1  0  0  0  0
  7  9  1  0  0  0  0
  7 10  1  0  0  0  0
 10 11  1  0  0  0  0
 10 12  1  0  0  0  0
 10 13  1  0  0  0  0
 13 14  1  0  0  0  0
 13 15  1  0  0  0  0
 13 16  1  0  0  0  0
 16 17  1  0  0  0  0
 16 18  1  0  0  0  0
 16 19  1  0  0  0  0
 19 20  1  0  0  0  0
 19 21  1  0  0  0  0
 19 22  1  0  0  0  0
M  END
> <VM2 Rank>
54

> <Conf_Id>
338

> <Probability>
0.00

> <Sum Probability>
99.97

> <Delta G>
5.403

> <G>
-11.595

> <E>
-31.810

> <-TS>
20.215

> <U+W>
-49.695

> <U>
11.659

> <W>
-61.353

> <W(PB)>
-63.612

> <W(SA)>
2.259

> <Valence>
10.364

> <Coulomb>
0.563

> <VdW>
0.732

> <VdW6>
-8.874

> <VdW12>
9.606

> <Bond>
0.201

> <Angle>
3.127

> <Pdih>
7.035

> <Idih>
0.001

> <Tether>
0.000

$$$$
VeraChem MOL file


 22 21  0  0  0  0  0  0  0  0999 V2000     
   19.9884   18.9829   25.6006 C   0  0  0  0  0  0  0  0  0  0  0  0
   20.0638   20.1067   26.0570 O   0  5  0  0  0  0  0  0  0  0  0  0
   20.8165   18.1172   25.8054 O   0  0  0  0  0  0  0  0  0  0  0  0
   18.7766   18.6304   24.7425 C   0  0  0  0  0  0  0  0  0  0  0  0
   17.9786   19.3534   24.9498 H   0  0  0  0  0  0  0  0  0  0  0  0
   18.4119   17.6514   25.0751 H   0  0  0  0  0  0  0  0  0  0  0  0
   19.0749   18.5821   23.2213 C   0  0  0  0  0  0  0  0  0  0  0  0
   19.8893   17.8677   23.0432 H   0  0  0  0  0  0  0  0  0  0  0  0
   18.1898   18.2009   22.6948 H   0  0  0  0  0  0  0  0  0  0  0  0
   19.4553   19.9665   22.6480 C   0  0  0  0  0  0  0  0  0  0  0  0
   20.4016   20.3018   23.0946 H   0  0  0  0  0  0  0  0  0  0  0  0
   18.6961   20.6995   22.9531 H   0  0  0  0  0  0  0  0  0  0  0  0
   19.5757   20.0048   21.1038 C   0  0  0  0  0  0  0  0  0  0  0  0
   18.6084   19.7607   20.6436 H   0  0  0  0  0  0  0  0  0  0  0  0
   19.7894   21.0431   20.8155 H   0  0  0  0  0  0  0  0  0  0  0  0
   20.6914   19.1035   20.5185 C   0  0  0  0  0  0  0  0  0  0  0  0
   21.5023   18.9781   21.2493 H   0  0  0  0  0  0  0  0  0  0  0  0
   21.1364   19.6135   19.6529 H   0  0  0  0  0  0  0  0  0  0  0  0
   20.1773   17.7250   20.0470 C   0  0  0  0  0  0  0  0  0  0  0  0
   20.9998   17.1320   19.6267 H   0  0  0  0  0  0  0  0  0  0  0  0
   19.4133   17.8392   19.2670 H   0  0  0  0  0  0  0  0  0  0  0  0
   19.7373   17.1500   20.8696 H   0  0  0  0  0  0  0  0  0  0  0  0
  1  2  1  0  0  0  0
  1  3  2  0  0  0  0
  1  4  1  0  0  0  0
  4  5  1  0  0  0  0
  4  6  1  0  0  0  0
  4  7  1  0  0  0  0
  7  8  1  0  0  0  0
  7  9  1  0  0  0  0
  7 10  1  0  0  0  0
 10 11  1  0  0  0  0
 10 12  1  0  0  0  0
 10 13  1  0  0  0  0
 13 14  1  0  0  0  0
 13 15  1  0  0  0  0
 13 16  1  0  0  0  0
 16 17  1  0  0  0  0
 16 18  1  0  0  0  0
 16 19  1  0  0  0  0
 19 20  1  0  0  0  0
 19 21  1  0  0  0  0
 19 22  1  0  0  0  0
M  END
> <VM2 Rank>
55

> <Conf_Id>
358

> <Probability>
0.00

> <Sum Probability>
99.98

> <Delta G>
5.418

> <G>
-11.580

> <E>
-31.783

> <-TS>
20.203

> <U+W>
-49.668

> <U>
12.072

> <W>
-61.740

> <W(PB)>
-63.968

> <W(SA)>
2.228

> <Valence>
10.343

> <Coulomb>
1.037

> <VdW>
0.692

> <VdW6>
-8.924

> <VdW12>
9.617

> <Bond>
0.196

> <Angle>
3.145

> <Pdih>
7.001

> <Idih>
0.001

> <Tether>
0.000

$$$$
VeraChem MOL file


 22 21  0  0  0  0  0  0  0  0999 V2000     
   19.9736   19.2560   25.5902 C   0  0  0  0  0  0  0  0  0  0  0  0
   20.7027   20.2190   25.7249 O   0  5  0  0  0  0  0  0  0  0  0  0
   20.1678   18.1850   26.1306 O   0  0  0  0  0  0  0  0  0  0  0  0
   18.7345   19.4094   24.7126 C   0  0  0  0  0  0  0  0  0  0  0  0
   18.2651   20.3659   24.9710 H   0  0  0  0  0  0  0  0  0  0  0  0
   18.0181   18.6226   24.9778 H   0  0  0  0  0  0  0  0  0  0  0  0
   19.0322   19.3732   23.1910 C   0  0  0  0  0  0  0  0  0  0  0  0
   18.1133   19.6156   22.6405 H   0  0  0  0  0  0  0  0  0  0  0  0
   19.7656   20.1555   22.9554 H   0  0  0  0  0  0  0  0  0  0  0  0
   19.5619   17.9981   22.7235 C   0  0  0  0  0  0  0  0  0  0  0  0
   18.8847   17.2131   23.0868 H   0  0  0  0  0  0  0  0  0  0  0  0
   20.5369   17.8018   23.1905 H   0  0  0  0  0  0  0  0  0  0  0  0
   19.6920   17.8551   21.1862 C   0  0  0  0  0  0  0  0  0  0  0  0
   20.0175   16.8269   20.9773 H   0  0  0  0  0  0  0  0  0  0  0  0
   18.7059   17.9577   20.7128 H   0  0  0  0  0  0  0  0  0  0  0  0
   20.7065   18.8240   20.5291 C   0  0  0  0  0  0  0  0  0  0  0  0
   21.2073   18.3003   19.7032 H   0  0  0  0  0  0  0  0  0  0  0  0
   21.4962   19.0914   21.2448 H   0  0  0  0  0  0  0  0  0  0  0  0
   20.0488   20.0991   19.9559 C   0  0  0  0  0  0  0  0  0  0  0  0
   19.5462   20.6845   20.7341 H   0  0  0  0  0  0  0  0  0  0  0  0
   19.3048   19.8440   19.1902 H   0  0  0  0  0  0  0  0  0  0  0  0
   20.8044   20.7433   19.4881 H   0  0  0  0  0  0  0  0  0  0  0  0
  1  2  1  0  0  0  0
  1  3  2  0  0  0  0
  1  4  1  0  0  0  0
  4  5  1  0  0  0  0
  4  6  1  0  0  0  0
  4  7  1  0  0  0  0
  7  8  1  0  0  0  0
  7  9  1  0  0  0  0
  7 10  1  0  0  0  0
 10 11  1  0  0  0  0
 10 12  1  0  0  0  0
 10 13  1  0  0  0  0
 13 14  1  0  0  0  0
 13 15  1  0  0  0  0
 13 16  1  0  0  0  0
 16 17  1  0  0  0  0
 16 18  1  0  0  0  0
 16 19  1  0  0  0  0
 19 20  1  0  0  0  0
 19 21  1  0  0  0  0
 19 22  1  0  0  0  0
M  END
> <VM2 Rank>
56

> <Conf_Id>
138

> <Probability>
0.00

> <Sum Probability>
99.98

> <Delta G>
5.423

> <G>
-11.575

> <E>
-31.778

> <-TS>
20.203

> <U+W>
-49.663

> <U>
12.072

> <W>
-61.735

> <W(PB)>
-63.969

> <W(SA)>
2.234

> <Valence>
10.343

> <Coulomb>
1.037

> <VdW>
0.692

> <VdW6>
-8.924

> <VdW12>
9.616

> <Bond>
0.196

> <Angle>
3.145

> <Pdih>
7.001

> <Idih>
0.001

> <Tether>
0.000

$$$$
VeraChem MOL file


 22 21  0  0  0  0  0  0  0  0999 V2000     
   19.8968   19.1930   25.7071 C   0  0  0  0  0  0  0  0  0  0  0  0
   20.2104   20.3291   26.0033 O   0  5  0  0  0  0  0  0  0  0  0  0
   18.9565   18.6043   26.2034 O   0  0  0  0  0  0  0  0  0  0  0  0
   20.7451   18.4591   24.6722 C   0  0  0  0  0  0  0  0  0  0  0  0
   20.5618   17.3820   24.7680 H   0  0  0  0  0  0  0  0  0  0  0  0
   21.7966   18.6265   24.9337 H   0  0  0  0  0  0  0  0  0  0  0  0
   20.4970   18.9164   23.2110 C   0  0  0  0  0  0  0  0  0  0  0  0
   20.6383   20.0037   23.1398 H   0  0  0  0  0  0  0  0  0  0  0  0
   21.2555   18.4503   22.5697 H   0  0  0  0  0  0  0  0  0  0  0  0
   19.0891   18.5339   22.6986 C   0  0  0  0  0  0  0  0  0  0  0  0
   18.3345   18.9077   23.4041 H   0  0  0  0  0  0  0  0  0  0  0  0
   18.9878   17.4401   22.6928 H   0  0  0  0  0  0  0  0  0  0  0  0
   18.7508   19.0903   21.2927 C   0  0  0  0  0  0  0  0  0  0  0  0
   17.7151   18.8032   21.0650 H   0  0  0  0  0  0  0  0  0  0  0  0
   18.7583   20.1887   21.3108 H   0  0  0  0  0  0  0  0  0  0  0  0
   19.6577   18.5659   20.1515 C   0  0  0  0  0  0  0  0  0  0  0  0
   19.0451   18.4334   19.2490 H   0  0  0  0  0  0  0  0  0  0  0  0
   20.0500   17.5708   20.4028 H   0  0  0  0  0  0  0  0  0  0  0  0
   20.8165   19.5270   19.8043 C   0  0  0  0  0  0  0  0  0  0  0  0
   21.4800   19.6932   20.6605 H   0  0  0  0  0  0  0  0  0  0  0  0
   20.4306   20.5025   19.4810 H   0  0  0  0  0  0  0  0  0  0  0  0
   21.4222   19.1178   18.9854 H   0  0  0  0  0  0  0  0  0  0  0  0
  1  2  1  0  0  0  0
  1  3  2  0  0  0  0
  1  4  1  0  0  0  0
  4  5  1  0  0  0  0
  4  6  1  0  0  0  0
  4  7  1  0  0  0  0
  7  8  1  0  0  0  0
  7  9  1  0  0  0  0
  7 10  1  0  0  0  0
 10 11  1  0  0  0  0
 10 12  1  0  0  0  0
 10 13  1  0  0  0  0
 13 14  1  0  0  0  0
 13 15  1  0  0  0  0
 13 16  1  0  0  0  0
 16 17  1  0  0  0  0
 16 18  1  0  0  0  0
 16 19  1  0  0  0  0
 19 20  1  0  0  0  0
 19 21  1  0  0  0  0
 19 22  1  0  0  0  0
M  END
> <VM2 Rank>
57

> <Conf_Id>
251

> <Probability>
0.00

> <Sum Probability>
99.98

> <Delta G>
5.427

> <G>
-11.571

> <E>
-31.808

> <-TS>
20.237

> <U+W>
-49.693

> <U>
11.773

> <W>
-61.466

> <W(PB)>
-63.715

> <W(SA)>
2.248

> <Valence>
10.419

> <Coulomb>
0.566

> <VdW>
0.789

> <VdW6>
-8.847

> <VdW12>
9.636

> <Bond>
0.200

> <Angle>
3.187

> <Pdih>
7.032

> <Idih>
0.001

> <Tether>
0.000

$$$$
VeraChem MOL file


 22 21  0  0  0  0  0  0  0  0999 V2000     
   19.7203   19.0693   25.7217 C   0  0  0  0  0  0  0  0  0  0  0  0
   20.1942   20.0401   26.2786 O   0  5  0  0  0  0  0  0  0  0  0  0
   19.9547   17.9237   26.0526 O   0  0  0  0  0  0  0  0  0  0  0  0
   18.7634   19.3047   24.5563 C   0  0  0  0  0  0  0  0  0  0  0  0
   18.0605   20.0884   24.8625 H   0  0  0  0  0  0  0  0  0  0  0  0
   18.1737   18.3937   24.3978 H   0  0  0  0  0  0  0  0  0  0  0  0
   19.4640   19.7241   23.2378 C   0  0  0  0  0  0  0  0  0  0  0  0
   18.6979   20.0121   22.5086 H   0  0  0  0  0  0  0  0  0  0  0  0
   20.0722   20.6208   23.4205 H   0  0  0  0  0  0  0  0  0  0  0  0
   20.3558   18.6004   22.6558 C   0  0  0  0  0  0  0  0  0  0  0  0
   19.7763   17.6747   22.5377 H   0  0  0  0  0  0  0  0  0  0  0  0
   21.1459   18.3739   23.3849 H   0  0  0  0  0  0  0  0  0  0  0  0
   21.0260   18.9839   21.3121 C   0  0  0  0  0  0  0  0  0  0  0  0
   21.1770   20.0707   21.2579 H   0  0  0  0  0  0  0  0  0  0  0  0
   22.0316   18.5418   21.2939 H   0  0  0  0  0  0  0  0  0  0  0  0
   20.2763   18.4870   20.0513 C   0  0  0  0  0  0  0  0  0  0  0  0
   20.2068   17.3906   20.0727 H   0  0  0  0  0  0  0  0  0  0  0  0
   20.8769   18.7393   19.1665 H   0  0  0  0  0  0  0  0  0  0  0  0
   18.8651   19.0858   19.8778 C   0  0  0  0  0  0  0  0  0  0  0  0
   18.8951   20.1825   19.9153 H   0  0  0  0  0  0  0  0  0  0  0  0
   18.1846   18.7277   20.6602 H   0  0  0  0  0  0  0  0  0  0  0  0
   18.4397   18.7914   18.9097 H   0  0  0  0  0  0  0  0  0  0  0  0
  1  2  1  0  0  0  0
  1  3  2  0  0  0  0
  1  4  1  0  0  0  0
  4  5  1  0  0  0  0
  4  6  1  0  0  0  0
  4  7  1  0  0  0  0
  7  8  1  0  0  0  0
  7  9  1  0  0  0  0
  7 10  1  0  0  0  0
 10 11  1  0  0  0  0
 10 12  1  0  0  0  0
 10 13  1  0  0  0  0
 13 14  1  0  0  0  0
 13 15  1  0  0  0  0
 13 16  1  0  0  0  0
 16 17  1  0  0  0  0
 16 18  1  0  0  0  0
 16 19  1  0  0  0  0
 19 20  1  0  0  0  0
 19 21  1  0  0  0  0
 19 22  1  0  0  0  0
M  END
> <VM2 Rank>
58

> <Conf_Id>
284

> <Probability>
0.00

> <Sum Probability>
99.99

> <Delta G>
5.466

> <G>
-11.532

> <E>
-31.747

> <-TS>
20.214

> <U+W>
-49.631

> <U>
11.659

> <W>
-61.290

> <W(PB)>
-63.516

> <W(SA)>
2.225

> <Valence>
10.364

> <Coulomb>
0.563

> <VdW>
0.732

> <VdW6>
-8.874

> <VdW12>
9.607

> <Bond>
0.201

> <Angle>
3.127

> <Pdih>
7.036

> <Idih>
0.001

> <Tether>
0.000

$$$$
VeraChem MOL file


 22 21  0  0  0  0  0  0  0  0999 V2000     
   20.1270   18.9417   25.4916 C   0  0  0  0  0  0  0  0  0  0  0  0
   19.5714   19.4139   26.4640 O   0  5  0  0  0  0  0  0  0  0  0  0
   20.4821   17.7818   25.4184 O   0  0  0  0  0  0  0  0  0  0  0  0
   20.4160   19.8639   24.3102 C   0  0  0  0  0  0  0  0  0  0  0  0
   21.1768   19.3903   23.6817 H   0  0  0  0  0  0  0  0  0  0  0  0
   20.8679   20.7768   24.7154 H   0  0  0  0  0  0  0  0  0  0  0  0
   19.1571   20.2389   23.4798 C   0  0  0  0  0  0  0  0  0  0  0  0
   18.4058   20.6487   24.1692 H   0  0  0  0  0  0  0  0  0  0  0  0
   19.3998   21.0510   22.7813 H   0  0  0  0  0  0  0  0  0  0  0  0
   18.5281   19.0513   22.7052 C   0  0  0  0  0  0  0  0  0  0  0  0
   17.4381   19.1873   22.7002 H   0  0  0  0  0  0  0  0  0  0  0  0
   18.7069   18.1067   23.2368 H   0  0  0  0  0  0  0  0  0  0  0  0
   18.9875   18.9235   21.2311 C   0  0  0  0  0  0  0  0  0  0  0  0
   18.4200   18.1067   20.7644 H   0  0  0  0  0  0  0  0  0  0  0  0
   18.7186   19.8370   20.6834 H   0  0  0  0  0  0  0  0  0  0  0  0
   20.4965   18.6465   21.0577 C   0  0  0  0  0  0  0  0  0  0  0  0
   20.7913   17.7911   21.6814 H   0  0  0  0  0  0  0  0  0  0  0  0
   21.0758   19.5140   21.3995 H   0  0  0  0  0  0  0  0  0  0  0  0
   20.8543   18.3575   19.5859 C   0  0  0  0  0  0  0  0  0  0  0  0
   20.5914   19.2084   18.9438 H   0  0  0  0  0  0  0  0  0  0  0  0
   20.3200   17.4718   19.2178 H   0  0  0  0  0  0  0  0  0  0  0  0
   21.9309   18.1720   19.4791 H   0  0  0  0  0  0  0  0  0  0  0  0
  1  2  1  0  0  0  0
  1  3  2  0  0  0  0
  1  4  1  0  0  0  0
  4  5  1  0  0  0  0
  4  6  1  0  0  0  0
  4  7  1  0  0  0  0
  7  8  1  0  0  0  0
  7  9  1  0  0  0  0
  7 10  1  0  0  0  0
 10 11  1  0  0  0  0
 10 12  1  0  0  0  0
 10 13  1  0  0  0  0
 13 14  1  0  0  0  0
 13 15  1  0  0  0  0
 13 16  1  0  0  0  0
 16 17  1  0  0  0  0
 16 18  1  0  0  0  0
 16 19  1  0  0  0  0
 19 20  1  0  0  0  0
 19 21  1  0  0  0  0
 19 22  1  0  0  0  0
M  END
> <VM2 Rank>
59

> <Conf_Id>
172

> <Probability>
0.00

> <Sum Probability>
99.99

> <Delta G>
5.509

> <G>
-11.489

> <E>
-31.789

> <-TS>
20.300

> <U+W>
-49.673

> <U>
11.908

> <W>
-61.582

> <W(PB)>
-63.808

> <W(SA)>
2.226

> <Valence>
10.449

> <Coulomb>
0.769

> <VdW>
0.691

> <VdW6>
-9.053

> <VdW12>
9.744

> <Bond>
0.222

> <Angle>
3.228

> <Pdih>
6.998

> <Idih>
0.001

> <Tether>
0.000

$$$$
VeraChem MOL file


 22 21  0  0  0  0  0  0  0  0999 V2000     
   20.1638   19.1738   25.4235 C   0  0  0  0  0  0  0  0  0  0  0  0
   20.9318   20.1145   25.4710 O   0  5  0  0  0  0  0  0  0  0  0  0
   20.4399   18.0595   25.8223 O   0  0  0  0  0  0  0  0  0  0  0  0
   18.7666   19.4141   24.8584 C   0  0  0  0  0  0  0  0  0  0  0  0
   18.3867   20.3398   25.3064 H   0  0  0  0  0  0  0  0  0  0  0  0
   18.1078   18.6044   25.1949 H   0  0  0  0  0  0  0  0  0  0  0  0
   18.7253   19.5321   23.3128 C   0  0  0  0  0  0  0  0  0  0  0  0
   17.7190   19.8489   23.0076 H   0  0  0  0  0  0  0  0  0  0  0  0
   19.4110   20.3273   22.9960 H   0  0  0  0  0  0  0  0  0  0  0  0
   19.0719   18.1985   22.6069 C   0  0  0  0  0  0  0  0  0  0  0  0
   18.3415   17.4426   22.9263 H   0  0  0  0  0  0  0  0  0  0  0  0
   20.0537   17.8313   22.9360 H   0  0  0  0  0  0  0  0  0  0  0  0
   19.0361   18.2963   21.0606 C   0  0  0  0  0  0  0  0  0  0  0  0
   18.6469   17.3474   20.6670 H   0  0  0  0  0  0  0  0  0  0  0  0
   18.3204   19.0671   20.7435 H   0  0  0  0  0  0  0  0  0  0  0  0
   20.4138   18.5452   20.3984 C   0  0  0  0  0  0  0  0  0  0  0  0
   20.2862   18.5210   19.3074 H   0  0  0  0  0  0  0  0  0  0  0  0
   21.0954   17.7198   20.6464 H   0  0  0  0  0  0  0  0  0  0  0  0
   21.0707   19.8851   20.7901 C   0  0  0  0  0  0  0  0  0  0  0  0
   21.3613   19.8886   21.8484 H   0  0  0  0  0  0  0  0  0  0  0  0
   20.3875   20.7258   20.6127 H   0  0  0  0  0  0  0  0  0  0  0  0
   21.9788   20.0553   20.1976 H   0  0  0  0  0  0  0  0  0  0  0  0
  1  2  1  0  0  0  0
  1  3  2  0  0  0  0
  1  4  1  0  0  0  0
  4  5  1  0  0  0  0
  4  6  1  0  0  0  0
  4  7  1  0  0  0  0
  7  8  1  0  0  0  0
  7  9  1  0  0  0  0
  7 10  1  0  0  0  0
 10 11  1  0  0  0  0
 10 12  1  0  0  0  0
 10 13  1  0  0  0  0
 13 14  1  0  0  0  0
 13 15  1  0  0  0  0
 13 16  1  0  0  0  0
 16 17  1  0  0  0  0
 16 18  1  0  0  0  0
 16 19  1  0  0  0  0
 19 20  1  0  0  0  0
 19 21  1  0  0  0  0
 19 22  1  0  0  0  0
M  END
> <VM2 Rank>
60

> <Conf_Id>
187

> <Probability>
0.00

> <Sum Probability>
99.99

> <Delta G>
5.655

> <G>
-11.343

> <E>
-31.599

> <-TS>
20.257

> <U+W>
-49.484

> <U>
12.672

> <W>
-62.157

> <W(PB)>
-64.364

> <W(SA)>
2.207

> <Valence>
10.318

> <Coulomb>
1.786

> <VdW>
0.569

> <VdW6>
-9.119

> <VdW12>
9.688

> <Bond>
0.199

> <Angle>
3.116

> <Pdih>
7.002

> <Idih>
0.001

> <Tether>
0.000

$$$$
VeraChem MOL file


 22 21  0  0  0  0  0  0  0  0999 V2000     
   19.7280   19.4372   25.4088 C   0  0  0  0  0  0  0  0  0  0  0  0
   20.2016   20.5557   25.4469 O   0  5  0  0  0  0  0  0  0  0  0  0
   18.5947   19.1745   25.7605 O   0  0  0  0  0  0  0  0  0  0  0  0
   20.6163   18.2963   24.9202 C   0  0  0  0  0  0  0  0  0  0  0  0
   20.1892   17.3467   25.2645 H   0  0  0  0  0  0  0  0  0  0  0  0
   21.5894   18.4045   25.4135 H   0  0  0  0  0  0  0  0  0  0  0  0
   20.8156   18.2691   23.3827 C   0  0  0  0  0  0  0  0  0  0  0  0
   21.2163   19.2364   23.0563 H   0  0  0  0  0  0  0  0  0  0  0  0
   21.5777   17.5175   23.1366 H   0  0  0  0  0  0  0  0  0  0  0  0
   19.5098   17.9337   22.6215 C   0  0  0  0  0  0  0  0  0  0  0  0
   18.7133   18.6409   22.8911 H   0  0  0  0  0  0  0  0  0  0  0  0
   19.1646   16.9452   22.9536 H   0  0  0  0  0  0  0  0  0  0  0  0
   19.6887   17.9020   21.0824 C   0  0  0  0  0  0  0  0  0  0  0  0
   20.7180   17.6186   20.8236 H   0  0  0  0  0  0  0  0  0  0  0  0
   19.0493   17.1043   20.6803 H   0  0  0  0  0  0  0  0  0  0  0  0
   19.3020   19.2170   20.3612 C   0  0  0  0  0  0  0  0  0  0  0  0
   18.2436   19.4428   20.5511 H   0  0  0  0  0  0  0  0  0  0  0  0
   19.3933   19.0606   19.2775 H   0  0  0  0  0  0  0  0  0  0  0  0
   20.1632   20.4334   20.7599 C   0  0  0  0  0  0  0  0  0  0  0  0
   19.9214   21.2984   20.1290 H   0  0  0  0  0  0  0  0  0  0  0  0
   21.2324   20.2154   20.6412 H   0  0  0  0  0  0  0  0  0  0  0  0
   19.9796   20.7233   21.8024 H   0  0  0  0  0  0  0  0  0  0  0  0
  1  2  1  0  0  0  0
  1  3  2  0  0  0  0
  1  4  1  0  0  0  0
  4  5  1  0  0  0  0
  4  6  1  0  0  0  0
  4  7  1  0  0  0  0
  7  8  1  0  0  0  0
  7  9  1  0  0  0  0
  7 10  1  0  0  0  0
 10 11  1  0  0  0  0
 10 12  1  0  0  0  0
 10 13  1  0  0  0  0
 13 14  1  0  0  0  0
 13 15  1  0  0  0  0
 13 16  1  0  0  0  0
 16 17  1  0  0  0  0
 16 18  1  0  0  0  0
 16 19  1  0  0  0  0
 19 20  1  0  0  0  0
 19 21  1  0  0  0  0
 19 22  1  0  0  0  0
M  END
> <VM2 Rank>
61

> <Conf_Id>
374

> <Probability>
0.00

> <Sum Probability>
100.00

> <Delta G>
5.662

> <G>
-11.336

> <E>
-31.593

> <-TS>
20.257

> <U+W>
-49.478

> <U>
12.672

> <W>
-62.150

> <W(PB)>
-64.358

> <W(SA)>
2.208

> <Valence>
10.318

> <Coulomb>
1.785

> <VdW>
0.569

> <VdW6>
-9.119

> <VdW12>
9.688

> <Bond>
0.198

> <Angle>
3.116

> <Pdih>
7.003

> <Idih>
0.001

> <Tether>
0.000

$$$$
VeraChem MOL file


 22 21  0  0  0  0  0  0  0  0999 V2000     
   20.3057   18.9176   24.9670 C   0  0  0  0  0  0  0  0  0  0  0  0
   20.4381   17.7115   25.0403 O   0  5  0  0  0  0  0  0  0  0  0  0
   21.2339   19.6996   25.0327 O   0  0  0  0  0  0  0  0  0  0  0  0
   18.8888   19.4847   24.9046 C   0  0  0  0  0  0  0  0  0  0  0  0
   18.9378   20.5778   24.9781 H   0  0  0  0  0  0  0  0  0  0  0  0
   18.3767   19.1327   25.8076 H   0  0  0  0  0  0  0  0  0  0  0  0
   18.0602   19.0635   23.6584 C   0  0  0  0  0  0  0  0  0  0  0  0
   18.2012   17.9935   23.4558 H   0  0  0  0  0  0  0  0  0  0  0  0
   16.9968   19.1788   23.9077 H   0  0  0  0  0  0  0  0  0  0  0  0
   18.3327   19.9045   22.3840 C   0  0  0  0  0  0  0  0  0  0  0  0
   18.1324   20.9614   22.6065 H   0  0  0  0  0  0  0  0  0  0  0  0
   17.6042   19.6169   21.6137 H   0  0  0  0  0  0  0  0  0  0  0  0
   19.7551   19.7834   21.7844 C   0  0  0  0  0  0  0  0  0  0  0  0
   19.8203   20.4532   20.9163 H   0  0  0  0  0  0  0  0  0  0  0  0
   20.5001   20.1482   22.5027 H   0  0  0  0  0  0  0  0  0  0  0  0
   20.1156   18.3495   21.3352 C   0  0  0  0  0  0  0  0  0  0  0  0
   19.3449   17.9698   20.6506 H   0  0  0  0  0  0  0  0  0  0  0  0
   20.1347   17.6767   22.2029 H   0  0  0  0  0  0  0  0  0  0  0  0
   21.4898   18.3048   20.6374 C   0  0  0  0  0  0  0  0  0  0  0  0
   21.7332   17.2801   20.3278 H   0  0  0  0  0  0  0  0  0  0  0  0
   22.2821   18.6518   21.3138 H   0  0  0  0  0  0  0  0  0  0  0  0
   21.4983   18.9410   19.7428 H   0  0  0  0  0  0  0  0  0  0  0  0
  1  2  1  0  0  0  0
  1  3  2  0  0  0  0
  1  4  1  0  0  0  0
  4  5  1  0  0  0  0
  4  6  1  0  0  0  0
  4  7  1  0  0  0  0
  7  8  1  0  0  0  0
  7  9  1  0  0  0  0
  7 10  1  0  0  0  0
 10 11  1  0  0  0  0
 10 12  1  0  0  0  0
 10 13  1  0  0  0  0
 13 14  1  0  0  0  0
 13 15  1  0  0  0  0
 13 16  1  0  0  0  0
 16 17  1  0  0  0  0
 16 18  1  0  0  0  0
 16 19  1  0  0  0  0
 19 20  1  0  0  0  0
 19 21  1  0  0  0  0
 19 22  1  0  0  0  0
M  END
> <VM2 Rank>
62

> <Conf_Id>
86

> <Probability>
0.00

> <Sum Probability>
100.00

> <Delta G>
6.066

> <G>
-10.932

> <E>
-31.801

> <-TS>
20.869

> <U+W>
-49.686

> <U>
12.939

> <W>
-62.625

> <W(PB)>
-64.804

> <W(SA)>
2.178

> <Valence>
9.684

> <Coulomb>
3.146

> <VdW>
0.109

> <VdW6>
-10.251

> <VdW12>
10.360

> <Bond>
0.223

> <Angle>
3.698

> <Pdih>
5.745

> <Idih>
0.018

> <Tether>
0.000

$$$$
VeraChem MOL file


 22 21  0  0  0  0  0  0  0  0999 V2000     
   20.1038   19.4351   25.1796 C   0  0  0  0  0  0  0  0  0  0  0  0
   20.9499   20.2303   24.8219 O   0  5  0  0  0  0  0  0  0  0  0  0
   20.2333   18.7094   26.1463 O   0  0  0  0  0  0  0  0  0  0  0  0
   18.7871   19.3796   24.4077 C   0  0  0  0  0  0  0  0  0  0  0  0
   18.7861   20.1613   23.6406 H   0  0  0  0  0  0  0  0  0  0  0  0
   17.9916   19.6414   25.1149 H   0  0  0  0  0  0  0  0  0  0  0  0
   18.4723   17.9961   23.7780 C   0  0  0  0  0  0  0  0  0  0  0  0
   18.4378   17.2481   24.5822 H   0  0  0  0  0  0  0  0  0  0  0  0
   17.4640   18.0197   23.3432 H   0  0  0  0  0  0  0  0  0  0  0  0
   19.4798   17.5180   22.7013 C   0  0  0  0  0  0  0  0  0  0  0  0
   19.2189   16.4818   22.4463 H   0  0  0  0  0  0  0  0  0  0  0  0
   20.4949   17.4735   23.1194 H   0  0  0  0  0  0  0  0  0  0  0  0
   19.4659   18.3475   21.3919 C   0  0  0  0  0  0  0  0  0  0  0  0
   19.5998   17.6603   20.5453 H   0  0  0  0  0  0  0  0  0  0  0  0
   18.4829   18.8170   21.2507 H   0  0  0  0  0  0  0  0  0  0  0  0
   20.5830   19.4134   21.3246 C   0  0  0  0  0  0  0  0  0  0  0  0
   21.5626   18.9283   21.4347 H   0  0  0  0  0  0  0  0  0  0  0  0
   20.4899   20.1217   22.1564 H   0  0  0  0  0  0  0  0  0  0  0  0
   20.5448   20.1895   19.9927 C   0  0  0  0  0  0  0  0  0  0  0  0
   21.3461   20.9390   19.9593 H   0  0  0  0  0  0  0  0  0  0  0  0
   19.5869   20.7117   19.8706 H   0  0  0  0  0  0  0  0  0  0  0  0
   20.6780   19.5123   19.1389 H   0  0  0  0  0  0  0  0  0  0  0  0
  1  2  1  0  0  0  0
  1  3  2  0  0  0  0
  1  4  1  0  0  0  0
  4  5  1  0  0  0  0
  4  6  1  0  0  0  0
  4  7  1  0  0  0  0
  7  8  1  0  0  0  0
  7  9  1  0  0  0  0
  7 10  1  0  0  0  0
 10 11  1  0  0  0  0
 10 12  1  0  0  0  0
 10 13  1  0  0  0  0
 13 14  1  0  0  0  0
 13 15  1  0  0  0  0
 13 16  1  0  0  0  0
 16 17  1  0  0  0  0
 16 18  1  0  0  0  0
 16 19  1  0  0  0  0
 19 20  1  0  0  0  0
 19 21  1  0  0  0  0
 19 22  1  0  0  0  0
M  END
> <VM2 Rank>
63

> <Conf_Id>
291

> <Probability>
0.00

> <Sum Probability>
100.00

> <Delta G>
6.215

> <G>
-10.783

> <E>
-31.080

> <-TS>
20.297

> <U+W>
-48.965

> <U>
13.118

> <W>
-62.083

> <W(PB)>
-64.298

> <W(SA)>
2.215

> <Valence>
10.731

> <Coulomb>
2.057

> <VdW>
0.330

> <VdW6>
-9.569

> <VdW12>
9.899

> <Bond>
0.211

> <Angle>
3.393

> <Pdih>
7.123

> <Idih>
0.004

> <Tether>
0.000

$$$$
VeraChem MOL file


 22 21  0  0  0  0  0  0  0  0999 V2000     
   20.1978   19.1285   25.1062 C   0  0  0  0  0  0  0  0  0  0  0  0
   20.8211   20.1718   25.0837 O   0  5  0  0  0  0  0  0  0  0  0  0
   20.6755   18.0697   25.4643 O   0  0  0  0  0  0  0  0  0  0  0  0
   18.7079   19.1716   24.7729 C   0  0  0  0  0  0  0  0  0  0  0  0
   18.2560   19.8838   25.4730 H   0  0  0  0  0  0  0  0  0  0  0  0
   18.2648   18.1928   24.9923 H   0  0  0  0  0  0  0  0  0  0  0  0
   18.3652   19.6063   23.3201 C   0  0  0  0  0  0  0  0  0  0  0  0
   17.3274   19.9657   23.3135 H   0  0  0  0  0  0  0  0  0  0  0  0
   18.9788   20.4691   23.0291 H   0  0  0  0  0  0  0  0  0  0  0  0
   18.4728   18.4760   22.2635 C   0  0  0  0  0  0  0  0  0  0  0  0
   18.0493   18.8382   21.3175 H   0  0  0  0  0  0  0  0  0  0  0  0
   17.8304   17.6402   22.5716 H   0  0  0  0  0  0  0  0  0  0  0  0
   19.9006   17.9322   21.9988 C   0  0  0  0  0  0  0  0  0  0  0  0
   20.2772   17.4392   22.9038 H   0  0  0  0  0  0  0  0  0  0  0  0
   19.8368   17.1422   21.2385 H   0  0  0  0  0  0  0  0  0  0  0  0
   20.9333   18.9871   21.5305 C   0  0  0  0  0  0  0  0  0  0  0  0
   21.9049   18.4911   21.4015 H   0  0  0  0  0  0  0  0  0  0  0  0
   21.0822   19.7443   22.3117 H   0  0  0  0  0  0  0  0  0  0  0  0
   20.5458   19.6758   20.2040 C   0  0  0  0  0  0  0  0  0  0  0  0
   20.3718   18.9350   19.4128 H   0  0  0  0  0  0  0  0  0  0  0  0
   21.3485   20.3460   19.8706 H   0  0  0  0  0  0  0  0  0  0  0  0
   19.6359   20.2781   20.3193 H   0  0  0  0  0  0  0  0  0  0  0  0
  1  2  1  0  0  0  0
  1  3  2  0  0  0  0
  1  4  1  0  0  0  0
  4  5  1  0  0  0  0
  4  6  1  0  0  0  0
  4  7  1  0  0  0  0
  7  8  1  0  0  0  0
  7  9  1  0  0  0  0
  7 10  1  0  0  0  0
 10 11  1  0  0  0  0
 10 12  1  0  0  0  0
 10 13  1  0  0  0  0
 13 14  1  0  0  0  0
 13 15  1  0  0  0  0
 13 16  1  0  0  0  0
 16 17  1  0  0  0  0
 16 18  1  0  0  0  0
 16 19  1  0  0  0  0
 19 20  1  0  0  0  0
 19 21  1  0  0  0  0
 19 22  1  0  0  0  0
M  END
> <VM2 Rank>
64

> <Conf_Id>
304

> <Probability>
0.00

> <Sum Probability>
100.00

> <Delta G>
6.526

> <G>
-10.472

> <E>
-31.604

> <-TS>
21.132

> <U+W>
-49.489

> <U>
12.978

> <W>
-62.467

> <W(PB)>
-64.624

> <W(SA)>
2.157

> <Valence>
10.104

> <Coulomb>
2.676

> <VdW>
0.197

> <VdW6>
-10.984

> <VdW12>
11.181

> <Bond>
0.262

> <Angle>
4.020

> <Pdih>
5.805

> <Idih>
0.017

> <Tether>
0.000

$$$$
VeraChem MOL file


 22 21  0  0  0  0  0  0  0  0999 V2000     
   19.9536   19.0350   25.5921 C   0  0  0  0  0  0  0  0  0  0  0  0
   19.5348   19.9133   26.3204 O   0  5  0  0  0  0  0  0  0  0  0  0
   19.7573   17.8514   25.7860 O   0  0  0  0  0  0  0  0  0  0  0  0
   20.7924   19.4418   24.3837 C   0  0  0  0  0  0  0  0  0  0  0  0
   21.3373   18.5620   24.0249 H   0  0  0  0  0  0  0  0  0  0  0  0
   21.5488   20.1514   24.7388 H   0  0  0  0  0  0  0  0  0  0  0  0
   19.9761   20.0966   23.2348 C   0  0  0  0  0  0  0  0  0  0  0  0
   19.4620   20.9811   23.6354 H   0  0  0  0  0  0  0  0  0  0  0  0
   20.6688   20.4681   22.4709 H   0  0  0  0  0  0  0  0  0  0  0  0
   18.9217   19.1606   22.5877 C   0  0  0  0  0  0  0  0  0  0  0  0
   18.2423   19.7546   21.9617 H   0  0  0  0  0  0  0  0  0  0  0  0
   18.2933   18.7388   23.3839 H   0  0  0  0  0  0  0  0  0  0  0  0
   19.5099   17.9968   21.7461 C   0  0  0  0  0  0  0  0  0  0  0  0
   20.4906   17.6909   22.1301 H   0  0  0  0  0  0  0  0  0  0  0  0
   18.8572   17.1227   21.8745 H   0  0  0  0  0  0  0  0  0  0  0  0
   19.6079   18.2851   20.2276 C   0  0  0  0  0  0  0  0  0  0  0  0
   18.6078   18.5023   19.8279 H   0  0  0  0  0  0  0  0  0  0  0  0
   19.9493   17.3719   19.7210 H   0  0  0  0  0  0  0  0  0  0  0  0
   20.5664   19.4384   19.8655 C   0  0  0  0  0  0  0  0  0  0  0  0
   20.1761   20.4018   20.2162 H   0  0  0  0  0  0  0  0  0  0  0  0
   20.6894   19.5080   18.7770 H   0  0  0  0  0  0  0  0  0  0  0  0
   21.5579   19.2806   20.3094 H   0  0  0  0  0  0  0  0  0  0  0  0
  1  2  1  0  0  0  0
  1  3  2  0  0  0  0
  1  4  1  0  0  0  0
  4  5  1  0  0  0  0
  4  6  1  0  0  0  0
  4  7  1  0  0  0  0
  7  8  1  0  0  0  0
  7  9  1  0  0  0  0
  7 10  1  0  0  0  0
 10 11  1  0  0  0  0
 10 12  1  0  0  0  0
 10 13  1  0  0  0  0
 13 14  1  0  0  0  0
 13 15  1  0  0  0  0
 13 16  1  0  0  0  0
 16 17  1  0  0  0  0
 16 18  1  0  0  0  0
 16 19  1  0  0  0  0
 19 20  1  0  0  0  0
 19 21  1  0  0  0  0
 19 22  1  0  0  0  0
M  END
> <VM2 Rank>
65

> <Conf_Id>
330

> <Probability>
0.00

> <Sum Probability>
100.00

> <Delta G>
6.564

> <G>
-10.434

> <E>
-30.642

> <-TS>
20.208

> <U+W>
-48.527

> <U>
12.987

> <W>
-61.514

> <W(PB)>
-63.717

> <W(SA)>
2.203

> <Valence>
11.114

> <Coulomb>
1.103

> <VdW>
0.770

> <VdW6>
-9.558

> <VdW12>
10.328

> <Bond>
0.268

> <Angle>
3.531

> <Pdih>
7.314

> <Idih>
0.001

> <Tether>
0.000

$$$$
VeraChem MOL file


 22 21  0  0  0  0  0  0  0  0999 V2000     
   19.9447   19.2000   25.5858 C   0  0  0  0  0  0  0  0  0  0  0  0
   19.6211   20.3668   25.6895 O   0  5  0  0  0  0  0  0  0  0  0  0
   19.6200   18.3399   26.3808 O   0  0  0  0  0  0  0  0  0  0  0  0
   20.8273   18.7947   24.4085 C   0  0  0  0  0  0  0  0  0  0  0  0
   21.6544   18.2000   24.8136 H   0  0  0  0  0  0  0  0  0  0  0  0
   21.2758   19.6982   23.9813 H   0  0  0  0  0  0  0  0  0  0  0  0
   20.0911   17.9700   23.3164 C   0  0  0  0  0  0  0  0  0  0  0  0
   20.8230   17.6180   22.5802 H   0  0  0  0  0  0  0  0  0  0  0  0
   19.6736   17.0684   23.7855 H   0  0  0  0  0  0  0  0  0  0  0  0
   18.9447   18.7348   22.6041 C   0  0  0  0  0  0  0  0  0  0  0  0
   18.2712   19.1460   23.3683 H   0  0  0  0  0  0  0  0  0  0  0  0
   18.3358   18.0250   22.0280 H   0  0  0  0  0  0  0  0  0  0  0  0
   19.4076   19.8875   21.6736 C   0  0  0  0  0  0  0  0  0  0  0  0
   18.6639   20.6934   21.7375 H   0  0  0  0  0  0  0  0  0  0  0  0
   20.3480   20.3258   22.0291 H   0  0  0  0  0  0  0  0  0  0  0  0
   19.5424   19.4964   20.1811 C   0  0  0  0  0  0  0  0  0  0  0  0
   19.7855   20.3997   19.6049 H   0  0  0  0  0  0  0  0  0  0  0  0
   18.5731   19.1428   19.8033 H   0  0  0  0  0  0  0  0  0  0  0  0
   20.6211   18.4288   19.9043 C   0  0  0  0  0  0  0  0  0  0  0  0
   20.7554   18.2900   18.8238 H   0  0  0  0  0  0  0  0  0  0  0  0
   20.3354   17.4586   20.3290 H   0  0  0  0  0  0  0  0  0  0  0  0
   21.5880   18.7260   20.3308 H   0  0  0  0  0  0  0  0  0  0  0  0
  1  2  1  0  0  0  0
  1  3  2  0  0  0  0
  1  4  1  0  0  0  0
  4  5  1  0  0  0  0
  4  6  1  0  0  0  0
  4  7  1  0  0  0  0
  7  8  1  0  0  0  0
  7  9  1  0  0  0  0
  7 10  1  0  0  0  0
 10 11  1  0  0  0  0
 10 12  1  0  0  0  0
 10 13  1  0  0  0  0
 13 14  1  0  0  0  0
 13 15  1  0  0  0  0
 13 16  1  0  0  0  0
 16 17  1  0  0  0  0
 16 18  1  0  0  0  0
 16 19  1  0  0  0  0
 19 20  1  0  0  0  0
 19 21  1  0  0  0  0
 19 22  1  0  0  0  0
M  END
> <VM2 Rank>
66

> <Conf_Id>
372

> <Probability>
0.00

> <Sum Probability>
100.00

> <Delta G>
6.596

> <G>
-10.402

> <E>
-30.610

> <-TS>
20.208

> <U+W>
-48.495

> <U>
12.987

> <W>
-61.482

> <W(PB)>
-63.694

> <W(SA)>
2.213

> <Valence>
11.114

> <Coulomb>
1.103

> <VdW>
0.770

> <VdW6>
-9.558

> <VdW12>
10.328

> <Bond>
0.268

> <Angle>
3.531

> <Pdih>
7.314

> <Idih>
0.001

> <Tether>
0.000

$$$$
VeraChem MOL file


 22 21  0  0  0  0  0  0  0  0999 V2000     
   20.1431   19.2182   25.3589 C   0  0  0  0  0  0  0  0  0  0  0  0
   20.2639   20.4269   25.3223 O   0  5  0  0  0  0  0  0  0  0  0  0
   19.6992   18.6165   26.3173 O   0  0  0  0  0  0  0  0  0  0  0  0
   20.5997   18.4070   24.1497 C   0  0  0  0  0  0  0  0  0  0  0  0
   21.2451   17.6025   24.5209 H   0  0  0  0  0  0  0  0  0  0  0  0
   21.2289   19.0451   23.5195 H   0  0  0  0  0  0  0  0  0  0  0  0
   19.4364   17.7931   23.3231 C   0  0  0  0  0  0  0  0  0  0  0  0
   19.8419   17.1451   22.5366 H   0  0  0  0  0  0  0  0  0  0  0  0
   18.8519   17.1342   23.9798 H   0  0  0  0  0  0  0  0  0  0  0  0
   18.4804   18.8375   22.6953 C   0  0  0  0  0  0  0  0  0  0  0  0
   18.0026   19.4078   23.5036 H   0  0  0  0  0  0  0  0  0  0  0  0
   17.6659   18.3068   22.1841 H   0  0  0  0  0  0  0  0  0  0  0  0
   19.1247   19.8402   21.7021 C   0  0  0  0  0  0  0  0  0  0  0  0
   18.3426   20.5559   21.4144 H   0  0  0  0  0  0  0  0  0  0  0  0
   19.8966   20.4402   22.2022 H   0  0  0  0  0  0  0  0  0  0  0  0
   19.6827   19.2053   20.4032 C   0  0  0  0  0  0  0  0  0  0  0  0
   19.5322   19.9151   19.5781 H   0  0  0  0  0  0  0  0  0  0  0  0
   19.1077   18.3067   20.1408 H   0  0  0  0  0  0  0  0  0  0  0  0
   21.1900   18.8743   20.4722 C   0  0  0  0  0  0  0  0  0  0  0  0
   21.4071   18.1142   21.2303 H   0  0  0  0  0  0  0  0  0  0  0  0
   21.7770   19.7707   20.7101 H   0  0  0  0  0  0  0  0  0  0  0  0
   21.5417   18.4893   19.5063 H   0  0  0  0  0  0  0  0  0  0  0  0
  1  2  1  0  0  0  0
  1  3  2  0  0  0  0
  1  4  1  0  0  0  0
  4  5  1  0  0  0  0
  4  6  1  0  0  0  0
  4  7  1  0  0  0  0
  7  8  1  0  0  0  0
  7  9  1  0  0  0  0
  7 10  1  0  0  0  0
 10 11  1  0  0  0  0
 10 12  1  0  0  0  0
 10 13  1  0  0  0  0
 13 14  1  0  0  0  0
 13 15  1  0  0  0  0
 13 16  1  0  0  0  0
 16 17  1  0  0  0  0
 16 18  1  0  0  0  0
 16 19  1  0  0  0  0
 19 20  1  0  0  0  0
 19 21  1  0  0  0  0
 19 22  1  0  0  0  0
M  END
> <VM2 Rank>
67

> <Conf_Id>
301

> <Probability>
0.00

> <Sum Probability>
100.00

> <Delta G>
6.680

> <G>
-10.318

> <E>
-31.010

> <-TS>
20.692

> <U+W>
-48.895

> <U>
13.163

> <W>
-62.058

> <W(PB)>
-64.213

> <W(SA)>
2.155

> <Valence>
10.932

> <Coulomb>
1.922

> <VdW>
0.309

> <VdW6>
-10.319

> <VdW12>
10.628

> <Bond>
0.254

> <Angle>
3.841

> <Pdih>
6.835

> <Idih>
0.001

> <Tether>
0.000

$$$$
VeraChem MOL file


 22 21  0  0  0  0  0  0  0  0999 V2000     
   20.3106   19.1534   25.4441 C   0  0  0  0  0  0  0  0  0  0  0  0
   21.1828   19.9913   25.3271 O   0  5  0  0  0  0  0  0  0  0  0  0
   19.7607   18.8970   26.4971 O   0  0  0  0  0  0  0  0  0  0  0  0
   19.8676   18.3949   24.1983 C   0  0  0  0  0  0  0  0  0  0  0  0
   19.5647   17.3867   24.5050 H   0  0  0  0  0  0  0  0  0  0  0  0
   20.7395   18.2801   23.5472 H   0  0  0  0  0  0  0  0  0  0  0  0
   18.7016   19.0955   23.4521 C   0  0  0  0  0  0  0  0  0  0  0  0
   17.8477   19.1511   24.1413 H   0  0  0  0  0  0  0  0  0  0  0  0
   18.9664   20.1346   23.2148 H   0  0  0  0  0  0  0  0  0  0  0  0
   18.2547   18.3491   22.1706 C   0  0  0  0  0  0  0  0  0  0  0  0
   17.1660   18.4641   22.0791 H   0  0  0  0  0  0  0  0  0  0  0  0
   18.4290   17.2698   22.2786 H   0  0  0  0  0  0  0  0  0  0  0  0
   18.8824   18.8597   20.8466 C   0  0  0  0  0  0  0  0  0  0  0  0
   18.3803   18.3312   20.0248 H   0  0  0  0  0  0  0  0  0  0  0  0
   18.6439   19.9223   20.7023 H   0  0  0  0  0  0  0  0  0  0  0  0
   20.4057   18.6285   20.6940 C   0  0  0  0  0  0  0  0  0  0  0  0
   20.6221   18.4172   19.6377 H   0  0  0  0  0  0  0  0  0  0  0  0
   20.7139   17.7329   21.2496 H   0  0  0  0  0  0  0  0  0  0  0  0
   21.2539   19.8496   21.1143 C   0  0  0  0  0  0  0  0  0  0  0  0
   21.0054   20.7262   20.5022 H   0  0  0  0  0  0  0  0  0  0  0  0
   22.3227   19.6390   20.9809 H   0  0  0  0  0  0  0  0  0  0  0  0
   21.0949   20.1169   22.1653 H   0  0  0  0  0  0  0  0  0  0  0  0
  1  2  1  0  0  0  0
  1  3  2  0  0  0  0
  1  4  1  0  0  0  0
  4  5  1  0  0  0  0
  4  6  1  0  0  0  0
  4  7  1  0  0  0  0
  7  8  1  0  0  0  0
  7  9  1  0  0  0  0
  7 10  1  0  0  0  0
 10 11  1  0  0  0  0
 10 12  1  0  0  0  0
 10 13  1  0  0  0  0
 13 14  1  0  0  0  0
 13 15  1  0  0  0  0
 13 16  1  0  0  0  0
 16 17  1  0  0  0  0
 16 18  1  0  0  0  0
 16 19  1  0  0  0  0
 19 20  1  0  0  0  0
 19 21  1  0  0  0  0
 19 22  1  0  0  0  0
M  END
> <VM2 Rank>
68

> <Conf_Id>
350

> <Probability>
0.00

> <Sum Probability>
100.00

> <Delta G>
7.512

> <G>
-9.486

> <E>
-29.954

> <-TS>
20.468

> <U+W>
-47.839

> <U>
13.811

> <W>
-61.649

> <W(PB)>
-63.847

> <W(SA)>
2.198

> <Valence>
12.676

> <Coulomb>
0.619

> <VdW>
0.516

> <VdW6>
-9.538

> <VdW12>
10.053

> <Bond>
0.234

> <Angle>
3.707

> <Pdih>
8.734

> <Idih>
0.001

> <Tether>
0.000

$$$$
VeraChem MOL file


 22 21  0  0  0  0  0  0  0  0999 V2000     
   19.8385   18.7656   25.2432 C   0  0  0  0  0  0  0  0  0  0  0  0
   18.6764   18.6808   25.5889 O   0  5  0  0  0  0  0  0  0  0  0  0
   20.6203   17.8357   25.2794 O   0  0  0  0  0  0  0  0  0  0  0  0
   20.3607   20.1267   24.7931 C   0  0  0  0  0  0  0  0  0  0  0  0
   21.2778   20.3191   25.3621 H   0  0  0  0  0  0  0  0  0  0  0  0
   19.6393   20.8957   25.0945 H   0  0  0  0  0  0  0  0  0  0  0  0
   20.6698   20.2464   23.2746 C   0  0  0  0  0  0  0  0  0  0  0  0
   21.2175   21.1854   23.1182 H   0  0  0  0  0  0  0  0  0  0  0  0
   21.3519   19.4421   22.9714 H   0  0  0  0  0  0  0  0  0  0  0  0
   19.4087   20.2716   22.3717 C   0  0  0  0  0  0  0  0  0  0  0  0
   19.6335   20.8252   21.4500 H   0  0  0  0  0  0  0  0  0  0  0  0
   18.6239   20.8503   22.8777 H   0  0  0  0  0  0  0  0  0  0  0  0
   18.8480   18.8742   21.9968 C   0  0  0  0  0  0  0  0  0  0  0  0
   19.0660   18.1406   22.7825 H   0  0  0  0  0  0  0  0  0  0  0  0
   17.7529   18.9463   21.9531 H   0  0  0  0  0  0  0  0  0  0  0  0
   19.3383   18.3349   20.6304 C   0  0  0  0  0  0  0  0  0  0  0  0
   19.0488   19.0326   19.8326 H   0  0  0  0  0  0  0  0  0  0  0  0
   18.8159   17.3918   20.4189 H   0  0  0  0  0  0  0  0  0  0  0  0
   20.8593   18.0832   20.5659 C   0  0  0  0  0  0  0  0  0  0  0  0
   21.4198   19.0236   20.6394 H   0  0  0  0  0  0  0  0  0  0  0  0
   21.1306   17.6078   19.6146 H   0  0  0  0  0  0  0  0  0  0  0  0
   21.1823   17.4215   21.3803 H   0  0  0  0  0  0  0  0  0  0  0  0
  1  2  1  0  0  0  0
  1  3  2  0  0  0  0
  1  4  1  0  0  0  0
  4  5  1  0  0  0  0
  4  6  1  0  0  0  0
  4  7  1  0  0  0  0
  7  8  1  0  0  0  0
  7  9  1  0  0  0  0
  7 10  1  0  0  0  0
 10 11  1  0  0  0  0
 10 12  1  0  0  0  0
 10 13  1  0  0  0  0
 13 14  1  0  0  0  0
 13 15  1  0  0  0  0
 13 16  1  0  0  0  0
 16 17  1  0  0  0  0
 16 18  1  0  0  0  0
 16 19  1  0  0  0  0
 19 20  1  0  0  0  0
 19 21  1  0  0  0  0
 19 22  1  0  0  0  0
M  END
> <VM2 Rank>
69

> <Conf_Id>
171

> <Probability>
0.00

> <Sum Probability>
100.00

> <Delta G>
8.167

> <G>
-8.831

> <E>
-29.228

> <-TS>
20.397

> <U+W>
-47.113

> <U>
15.357

> <W>
-62.470

> <W(PB)>
-64.647

> <W(SA)>
2.177

> <Valence>
12.194

> <Coulomb>
2.676

> <VdW>
0.488

> <VdW6>
-10.169

> <VdW12>
10.657

> <Bond>
0.265

> <Angle>
3.626

> <Pdih>
8.299

> <Idih>
0.004

> <Tether>
0.000

$$$$
VeraChem MOL file


 22 21  0  0  0  0  0  0  0  0999 V2000     
   20.3260   18.8445   24.8916 C   0  0  0  0  0  0  0  0  0  0  0  0
   20.8096   19.9142   25.2082 O   0  5  0  0  0  0  0  0  0  0  0  0
   20.9722   17.8184   24.8122 O   0  0  0  0  0  0  0  0  0  0  0  0
   18.8106   18.7499   24.7075 C   0  0  0  0  0  0  0  0  0  0  0  0
   18.3823   18.7616   25.7162 H   0  0  0  0  0  0  0  0  0  0  0  0
   18.5637   17.7730   24.2749 H   0  0  0  0  0  0  0  0  0  0  0  0
   18.1580   19.8880   23.8719 C   0  0  0  0  0  0  0  0  0  0  0  0
   17.1018   19.9583   24.1650 H   0  0  0  0  0  0  0  0  0  0  0  0
   18.6058   20.8548   24.1403 H   0  0  0  0  0  0  0  0  0  0  0  0
   18.2030   19.6940   22.3345 C   0  0  0  0  0  0  0  0  0  0  0  0
   17.6318   20.5161   21.8820 H   0  0  0  0  0  0  0  0  0  0  0  0
   17.6689   18.7751   22.0562 H   0  0  0  0  0  0  0  0  0  0  0  0
   19.6228   19.7010   21.7159 C   0  0  0  0  0  0  0  0  0  0  0  0
   19.5967   20.2802   20.7828 H   0  0  0  0  0  0  0  0  0  0  0  0
   20.3243   20.2251   22.3794 H   0  0  0  0  0  0  0  0  0  0  0  0
   20.1444   18.2837   21.3897 C   0  0  0  0  0  0  0  0  0  0  0  0
   19.4734   17.8015   20.6658 H   0  0  0  0  0  0  0  0  0  0  0  0
   20.1361   17.6587   22.2913 H   0  0  0  0  0  0  0  0  0  0  0  0
   21.5734   18.3253   20.8124 C   0  0  0  0  0  0  0  0  0  0  0  0
   22.2723   18.7668   21.5352 H   0  0  0  0  0  0  0  0  0  0  0  0
   21.6091   18.9207   19.8908 H   0  0  0  0  0  0  0  0  0  0  0  0
   21.9250   17.3124   20.5773 H   0  0  0  0  0  0  0  0  0  0  0  0
  1  2  1  0  0  0  0
  1  3  2  0  0  0  0
  1  4  1  0  0  0  0
  4  5  1  0  0  0  0
  4  6  1  0  0  0  0
  4  7  1  0  0  0  0
  7  8  1  0  0  0  0
  7  9  1  0  0  0  0
  7 10  1  0  0  0  0
 10 11  1  0  0  0  0
 10 12  1  0  0  0  0
 10 13  1  0  0  0  0
 13 14  1  0  0  0  0
 13 15  1  0  0  0  0
 13 16  1  0  0  0  0
 16 17  1  0  0  0  0
 16 18  1  0  0  0  0
 16 19  1  0  0  0  0
 19 20  1  0  0  0  0
 19 21  1  0  0  0  0
 19 22  1  0  0  0  0
M  END
> <VM2 Rank>
70

> <Conf_Id>
219

> <Probability>
0.00

> <Sum Probability>
100.00

> <Delta G>
8.527

> <G>
-8.471

> <E>
-29.145

> <-TS>
20.675

> <U+W>
-47.030

> <U>
15.739

> <W>
-62.769

> <W(PB)>
-64.934

> <W(SA)>
2.164

> <Valence>
12.167

> <Coulomb>
3.363

> <VdW>
0.210

> <VdW6>
-10.463

> <VdW12>
10.673

> <Bond>
0.233

> <Angle>
3.823

> <Pdih>
8.088

> <Idih>
0.023

> <Tether>
0.000

$$$$
VeraChem MOL file


 22 21  0  0  0  0  0  0  0  0999 V2000     
   20.3436   19.3239   24.8678 C   0  0  0  0  0  0  0  0  0  0  0  0
   20.7491   18.2584   25.2902 O   0  5  0  0  0  0  0  0  0  0  0  0
   21.0624   20.2875   24.6902 O   0  0  0  0  0  0  0  0  0  0  0  0
   18.8384   19.5101   24.6699 C   0  0  0  0  0  0  0  0  0  0  0  0
   18.6617   20.4551   24.1425 H   0  0  0  0  0  0  0  0  0  0  0  0
   18.4140   19.6289   25.6734 H   0  0  0  0  0  0  0  0  0  0  0  0
   18.1017   18.3459   23.9480 C   0  0  0  0  0  0  0  0  0  0  0  0
   18.4789   17.3801   24.3118 H   0  0  0  0  0  0  0  0  0  0  0  0
   17.0442   18.3818   24.2428 H   0  0  0  0  0  0  0  0  0  0  0  0
   18.1551   18.3839   22.3992 C   0  0  0  0  0  0  0  0  0  0  0  0
   17.6884   19.3074   22.0299 H   0  0  0  0  0  0  0  0  0  0  0  0
   17.5239   17.5650   22.0277 H   0  0  0  0  0  0  0  0  0  0  0  0
   19.5684   18.2128   21.7893 C   0  0  0  0  0  0  0  0  0  0  0  0
   20.2323   17.7068   22.5037 H   0  0  0  0  0  0  0  0  0  0  0  0
   19.4968   17.5481   20.9176 H   0  0  0  0  0  0  0  0  0  0  0  0
   20.1907   19.5493   21.3272 C   0  0  0  0  0  0  0  0  0  0  0  0
   20.2310   20.2590   22.1629 H   0  0  0  0  0  0  0  0  0  0  0  0
   19.5540   20.0056   20.5569 H   0  0  0  0  0  0  0  0  0  0  0  0
   21.6107   19.3472   20.7621 C   0  0  0  0  0  0  0  0  0  0  0  0
   21.5997   18.6630   19.9036 H   0  0  0  0  0  0  0  0  0  0  0  0
   22.2783   18.9294   21.5273 H   0  0  0  0  0  0  0  0  0  0  0  0
   22.0343   20.3038   20.4297 H   0  0  0  0  0  0  0  0  0  0  0  0
  1  2  1  0  0  0  0
  1  3  2  0  0  0  0
  1  4  1  0  0  0  0
  4  5  1  0  0  0  0
  4  6  1  0  0  0  0
  4  7  1  0  0  0  0
  7  8  1  0  0  0  0
  7  9  1  0  0  0  0
  7 10  1  0  0  0  0
 10 11  1  0  0  0  0
 10 12  1  0  0  0  0
 10 13  1  0  0  0  0
 13 14  1  0  0  0  0
 13 15  1  0  0  0  0
 13 16  1  0  0  0  0
 16 17  1  0  0  0  0
 16 18  1  0  0  0  0
 16 19  1  0  0  0  0
 19 20  1  0  0  0  0
 19 21  1  0  0  0  0
 19 22  1  0  0  0  0
M  END
> <VM2 Rank>
71

> <Conf_Id>
254

> <Probability>
0.00

> <Sum Probability>
100.00

> <Delta G>
8.582

> <G>
-8.416

> <E>
-29.090

> <-TS>
20.675

> <U+W>
-46.975

> <U>
15.738

> <W>
-62.713

> <W(PB)>
-64.888

> <W(SA)>
2.174

> <Valence>
12.166

> <Coulomb>
3.362

> <VdW>
0.209

> <VdW6>
-10.463

> <VdW12>
10.673

> <Bond>
0.233

> <Angle>
3.823

> <Pdih>
8.088

> <Idih>
0.022

> <Tether>
0.000

$$$$
VeraChem MOL file


 22 21  0  0  0  0  0  0  0  0999 V2000     
   20.3275   19.1233   24.9338 C   0  0  0  0  0  0  0  0  0  0  0  0
   20.9428   20.1704   24.9835 O   0  5  0  0  0  0  0  0  0  0  0  0
   20.8380   18.0361   25.1212 O   0  0  0  0  0  0  0  0  0  0  0  0
   18.8096   19.1926   24.7844 C   0  0  0  0  0  0  0  0  0  0  0  0
   18.4584   19.9018   25.5431 H   0  0  0  0  0  0  0  0  0  0  0  0
   18.3813   18.2181   25.0481 H   0  0  0  0  0  0  0  0  0  0  0  0
   18.2946   19.6529   23.3912 C   0  0  0  0  0  0  0  0  0  0  0  0
   17.2842   20.0597   23.5326 H   0  0  0  0  0  0  0  0  0  0  0  0
   18.8940   20.4897   23.0147 H   0  0  0  0  0  0  0  0  0  0  0  0
   18.1879   18.5231   22.3357 C   0  0  0  0  0  0  0  0  0  0  0  0
   17.6019   18.8924   21.4831 H   0  0  0  0  0  0  0  0  0  0  0  0
   17.5956   17.7039   22.7656 H   0  0  0  0  0  0  0  0  0  0  0  0
   19.5204   17.9371   21.8008 C   0  0  0  0  0  0  0  0  0  0  0  0
   20.1593   17.5923   22.6229 H   0  0  0  0  0  0  0  0  0  0  0  0
   19.2648   17.0307   21.2353 H   0  0  0  0  0  0  0  0  0  0  0  0
   20.3087   18.8684   20.8449 C   0  0  0  0  0  0  0  0  0  0  0  0
   19.6200   19.5189   20.2888 H   0  0  0  0  0  0  0  0  0  0  0  0
   20.8107   18.2439   20.0931 H   0  0  0  0  0  0  0  0  0  0  0  0
   21.3906   19.7151   21.5486 C   0  0  0  0  0  0  0  0  0  0  0  0
   20.9539   20.4413   22.2421 H   0  0  0  0  0  0  0  0  0  0  0  0
   21.9802   20.2749   20.8114 H   0  0  0  0  0  0  0  0  0  0  0  0
   22.0797   19.0775   22.1179 H   0  0  0  0  0  0  0  0  0  0  0  0
  1  2  1  0  0  0  0
  1  3  2  0  0  0  0
  1  4  1  0  0  0  0
  4  5  1  0  0  0  0
  4  6  1  0  0  0  0
  4  7  1  0  0  0  0
  7  8  1  0  0  0  0
  7  9  1  0  0  0  0
  7 10  1  0  0  0  0
 10 11  1  0  0  0  0
 10 12  1  0  0  0  0
 10 13  1  0  0  0  0
 13 14  1  0  0  0  0
 13 15  1  0  0  0  0
 13 16  1  0  0  0  0
 16 17  1  0  0  0  0
 16 18  1  0  0  0  0
 16 19  1  0  0  0  0
 19 20  1  0  0  0  0
 19 21  1  0  0  0  0
 19 22  1  0  0  0  0
M  END
> <VM2 Rank>
72

> <Conf_Id>
155

> <Probability>
0.00

> <Sum Probability>
100.00

> <Delta G>
9.780

> <G>
-7.218

> <E>
-27.829

> <-TS>
20.611

> <U+W>
-45.714

> <U>
16.808

> <W>
-62.522

> <W(PB)>
-64.649

> <W(SA)>
2.127

> <Valence>
13.059

> <Coulomb>
3.862

> <VdW>
-0.113

> <VdW6>
-11.028

> <VdW12>
10.915

> <Bond>
0.270

> <Angle>
4.723

> <Pdih>
8.032

> <Idih>
0.034

> <Tether>
0.000

$$$$
