@<TRIPOS>MOLECULE
guest-5_vm2.mol2 : vm2 ligand conformer 1
          22          22           1
SMALL
USER_CHARGES
 
@<TRIPOS>ATOM
       1    C1      19.882525   19.048996   20.902623 C.3        1 MOL1        -0.1685
       2    H1      20.893214   19.156626   20.485844 H          1 MOL1         0.0832
       3    H2      19.282384   18.576002   20.113382 H          1 MOL1         0.0832
       4    C2      19.291670   20.449261   21.183593 C.3        1 MOL1        -0.1685
       5    H3      19.360984   21.041179   20.260757 H          1 MOL1         0.0832
       6    H4      18.218523   20.355837   21.398989 H          1 MOL1         0.0832
       7    C3      19.980595   21.234440   22.324931 C.3        1 MOL1        -0.1685
       8    H5      19.622369   22.271965   22.279932 H          1 MOL1         0.0832
       9    H6      21.066951   21.280324   22.168764 H          1 MOL1         0.0832
      10    C4      19.646661   20.673251   23.728260 C.3        1 MOL1        -0.1761
      11    H7      19.718550   21.490460   24.457739 H          1 MOL1         0.0832
      12    H8      18.597376   20.350666   23.748688 H          1 MOL1         0.0832
      13    C5      20.564412   19.531299   24.223446 C.3        1 MOL1         0.1218
      14    H9      21.477117   19.984930   24.635852 H          1 MOL1         0.0789
      15    C6      21.006786   18.501837   23.157794 C.3        1 MOL1        -0.1761
      16    H10     21.888362   18.889441   22.631170 H          1 MOL1         0.0832
      17    H11     21.356389   17.599095   23.676648 H          1 MOL1         0.0832
      18    C7      19.926462   18.100052   22.123477 C.3        1 MOL1        -0.1685
      19    H12     20.166014   17.093097   21.755491 H          1 MOL1         0.0832
      20    H13     18.937104   18.024842   22.593958 H          1 MOL1         0.0832
      21    O1      19.886889   18.838864   25.262878 O.3        1 MOL1        -0.5509
      22    H14     19.142161   18.371545   24.832703 H          1 MOL1         0.3779
@<TRIPOS>BOND
    1     1     2    1
    2     1     3    1
    3     1     4    1
    4     4     5    1
    5     4     6    1
    6     4     7    1
    7     7     8    1
    8     7     9    1
    9     7    10    1
   10    10    11    1
   11    10    12    1
   12    10    13    1
   13    13    14    1
   14    13    15    1
   15    15    16    1
   16    15    17    1
   17     1    18    1
   18    15    18    1
   19    18    19    1
   20    18    20    1
   21    13    21    1
   22    21    22    1
@<TRIPOS>SUBSTRUCTURE
       1 MOL1            1 RESIDUE      1      MOL     
@<SCITEGIC>MOL_PROPERTY
VM2 Rank
SciTegic.value.IntegerValue
1

@<SCITEGIC>MOL_PROPERTY
Conf_Id
SciTegic.value.IntegerValue
1160

@<SCITEGIC>MOL_PROPERTY
Probability
SciTegic.value.DoubleValue
4.87

@<SCITEGIC>MOL_PROPERTY
Sum Probability
SciTegic.value.DoubleValue
4.87

@<SCITEGIC>MOL_PROPERTY
Delta G
SciTegic.value.DoubleValue
0.000

@<SCITEGIC>MOL_PROPERTY
G
SciTegic.value.DoubleValue
47.363

@<SCITEGIC>MOL_PROPERTY
E
SciTegic.value.DoubleValue
20.694

@<SCITEGIC>MOL_PROPERTY
-TS
SciTegic.value.DoubleValue
26.668

@<SCITEGIC>MOL_PROPERTY
U+W
SciTegic.value.DoubleValue
2.809

@<SCITEGIC>MOL_PROPERTY
U
SciTegic.value.DoubleValue
4.530

@<SCITEGIC>MOL_PROPERTY
W
SciTegic.value.DoubleValue
-1.721

@<SCITEGIC>MOL_PROPERTY
W(PB)
SciTegic.value.DoubleValue
-3.723

@<SCITEGIC>MOL_PROPERTY
W(SA)
SciTegic.value.DoubleValue
2.002

@<SCITEGIC>MOL_PROPERTY
Valence
SciTegic.value.DoubleValue
12.224

@<SCITEGIC>MOL_PROPERTY
Coulomb
SciTegic.value.DoubleValue
-9.755

@<SCITEGIC>MOL_PROPERTY
VdW
SciTegic.value.DoubleValue
2.062

@<SCITEGIC>MOL_PROPERTY
VdW6
SciTegic.value.DoubleValue
-9.196

@<SCITEGIC>MOL_PROPERTY
VdW12
SciTegic.value.DoubleValue
11.257

@<SCITEGIC>MOL_PROPERTY
Bond
SciTegic.value.DoubleValue
0.216

@<SCITEGIC>MOL_PROPERTY
Angle
SciTegic.value.DoubleValue
2.754

@<SCITEGIC>MOL_PROPERTY
Pdih
SciTegic.value.DoubleValue
9.253

@<SCITEGIC>MOL_PROPERTY
Idih
SciTegic.value.DoubleValue
0.000

@<SCITEGIC>MOL_PROPERTY
Tether
SciTegic.value.DoubleValue
0.000

@<TRIPOS>MOLECULE
guest-5_vm2.mol2 : vm2 ligand conformer 2
          22          22           1
SMALL
USER_CHARGES
 
@<TRIPOS>ATOM
       1    C1      19.946674   19.063693   20.895402 C.3        1 MOL1        -0.1685
       2    H1      20.510025   18.857122   19.975207 H          1 MOL1         0.0832
       3    H2      18.925172   18.705990   20.707348 H          1 MOL1         0.0832
       4    C2      19.922613   20.593739   21.112591 C.3        1 MOL1        -0.1685
       5    H3      20.950272   20.981351   21.091589 H          1 MOL1         0.0832
       6    H4      19.412269   21.052930   20.254984 H          1 MOL1         0.0832
       7    C3      19.221458   21.060614   22.410352 C.3        1 MOL1        -0.1685
       8    H5      18.215163   20.627325   22.489666 H          1 MOL1         0.0832
       9    H6      19.080282   22.147839   22.340929 H          1 MOL1         0.0832
      10    C4      20.052391   20.766156   23.682605 C.3        1 MOL1        -0.1761
      11    H7      21.116437   20.927509   23.465237 H          1 MOL1         0.0832
      12    H8      19.792026   21.507280   24.449472 H          1 MOL1         0.0832
      13    C5      19.842480   19.365980   24.304676 C.3        1 MOL1         0.1218
      14    H9      18.933409   19.402443   24.922049 H          1 MOL1         0.0789
      15    C6      19.671703   18.196091   23.308031 C.3        1 MOL1        -0.1761
      16    H10     19.862689   17.257027   23.844740 H          1 MOL1         0.0832
      17    H11     18.619946   18.140926   22.998980 H          1 MOL1         0.0832
      18    C7      20.574152   18.248370   22.050576 C.3        1 MOL1        -0.1685
      19    H12     20.719117   17.219757   21.693225 H          1 MOL1         0.0832
      20    H13     21.574321   18.628760   22.297161 H          1 MOL1         0.0832
      21    O1      20.954529   19.083357   25.142768 O.3        1 MOL1        -0.5509
      22    H14     21.718272   18.961399   24.542867 H          1 MOL1         0.3779
@<TRIPOS>BOND
    1     1     2    1
    2     1     3    1
    3     1     4    1
    4     4     5    1
    5     4     6    1
    6     4     7    1
    7     7     8    1
    8     7     9    1
    9     7    10    1
   10    10    11    1
   11    10    12    1
   12    10    13    1
   13    13    14    1
   14    13    15    1
   15    15    16    1
   16    15    17    1
   17     1    18    1
   18    15    18    1
   19    18    19    1
   20    18    20    1
   21    13    21    1
   22    21    22    1
@<TRIPOS>SUBSTRUCTURE
       1 MOL1            1 RESIDUE      1      MOL     
@<SCITEGIC>MOL_PROPERTY
VM2 Rank
SciTegic.value.IntegerValue
2

@<SCITEGIC>MOL_PROPERTY
Conf_Id
SciTegic.value.IntegerValue
2585

@<SCITEGIC>MOL_PROPERTY
Probability
SciTegic.value.DoubleValue
4.76

@<SCITEGIC>MOL_PROPERTY
Sum Probability
SciTegic.value.DoubleValue
9.63

@<SCITEGIC>MOL_PROPERTY
Delta G
SciTegic.value.DoubleValue
0.013

@<SCITEGIC>MOL_PROPERTY
G
SciTegic.value.DoubleValue
47.376

@<SCITEGIC>MOL_PROPERTY
E
SciTegic.value.DoubleValue
20.708

@<SCITEGIC>MOL_PROPERTY
-TS
SciTegic.value.DoubleValue
26.668

@<SCITEGIC>MOL_PROPERTY
U+W
SciTegic.value.DoubleValue
2.823

@<SCITEGIC>MOL_PROPERTY
U
SciTegic.value.DoubleValue
4.530

@<SCITEGIC>MOL_PROPERTY
W
SciTegic.value.DoubleValue
-1.708

@<SCITEGIC>MOL_PROPERTY
W(PB)
SciTegic.value.DoubleValue
-3.712

@<SCITEGIC>MOL_PROPERTY
W(SA)
SciTegic.value.DoubleValue
2.004

@<SCITEGIC>MOL_PROPERTY
Valence
SciTegic.value.DoubleValue
12.224

@<SCITEGIC>MOL_PROPERTY
Coulomb
SciTegic.value.DoubleValue
-9.755

@<SCITEGIC>MOL_PROPERTY
VdW
SciTegic.value.DoubleValue
2.061

@<SCITEGIC>MOL_PROPERTY
VdW6
SciTegic.value.DoubleValue
-9.195

@<SCITEGIC>MOL_PROPERTY
VdW12
SciTegic.value.DoubleValue
11.257

@<SCITEGIC>MOL_PROPERTY
Bond
SciTegic.value.DoubleValue
0.216

@<SCITEGIC>MOL_PROPERTY
Angle
SciTegic.value.DoubleValue
2.754

@<SCITEGIC>MOL_PROPERTY
Pdih
SciTegic.value.DoubleValue
9.253

@<SCITEGIC>MOL_PROPERTY
Idih
SciTegic.value.DoubleValue
0.000

@<SCITEGIC>MOL_PROPERTY
Tether
SciTegic.value.DoubleValue
0.000

@<TRIPOS>MOLECULE
guest-5_vm2.mol2 : vm2 ligand conformer 3
          22          22           1
SMALL
USER_CHARGES
 
@<TRIPOS>ATOM
       1    C1      19.668075   19.024023   20.921540 C.3        1 MOL1        -0.1685
       2    H1      19.930790   18.883800   19.864131 H          1 MOL1         0.0832
       3    H2      18.704750   18.514615   21.060381 H          1 MOL1         0.0832
       4    C2      19.489460   20.537953   21.176302 C.3        1 MOL1        -0.1685
       5    H3      20.387326   21.073036   20.838212 H          1 MOL1         0.0832
       6    H4      18.669443   20.897995   20.540114 H          1 MOL1         0.0832
       7    C3      19.180971   20.923098   22.642388 C.3        1 MOL1        -0.1685
       8    H5      18.322033   20.353920   23.021997 H          1 MOL1         0.0832
       9    H6      18.875922   21.978361   22.653492 H          1 MOL1         0.0832
      10    C4      20.407988   20.769156   23.574632 C.3        1 MOL1        -0.1761
      11    H7      21.317342   21.051747   23.028772 H          1 MOL1         0.0832
      12    H8      20.326894   21.496922   24.393261 H          1 MOL1         0.0832
      13    C5      20.608038   19.366073   24.193055 C.3        1 MOL1         0.1218
      14    H9      21.658819   19.296952   24.509235 H          1 MOL1         0.0789
      15    C6      20.309109   18.164153   23.267014 C.3        1 MOL1        -0.1761
      16    H10     20.827087   17.291588   23.685900 H          1 MOL1         0.0832
      17    H11     19.239815   17.917357   23.301330 H          1 MOL1         0.0832
      18    C7      20.746022   18.335541   21.792053 C.3        1 MOL1        -0.1685
      19    H12     20.925580   17.336205   21.372655 H          1 MOL1         0.0832
      20    H13     21.703356   18.870123   21.725766 H          1 MOL1         0.0832
      21    O1      19.776338   19.258003   25.340016 O.3        1 MOL1        -0.5509
      22    H14     18.864198   19.424604   25.026484 H          1 MOL1         0.3779
@<TRIPOS>BOND
    1     1     2    1
    2     1     3    1
    3     1     4    1
    4     4     5    1
    5     4     6    1
    6     4     7    1
    7     7     8    1
    8     7     9    1
    9     7    10    1
   10    10    11    1
   11    10    12    1
   12    10    13    1
   13    13    14    1
   14    13    15    1
   15    15    16    1
   16    15    17    1
   17     1    18    1
   18    15    18    1
   19    18    19    1
   20    18    20    1
   21    13    21    1
   22    21    22    1
@<TRIPOS>SUBSTRUCTURE
       1 MOL1            1 RESIDUE      1      MOL     
@<SCITEGIC>MOL_PROPERTY
VM2 Rank
SciTegic.value.IntegerValue
3

@<SCITEGIC>MOL_PROPERTY
Conf_Id
SciTegic.value.IntegerValue
571

@<SCITEGIC>MOL_PROPERTY
Probability
SciTegic.value.DoubleValue
4.68

@<SCITEGIC>MOL_PROPERTY
Sum Probability
SciTegic.value.DoubleValue
14.31

@<SCITEGIC>MOL_PROPERTY
Delta G
SciTegic.value.DoubleValue
0.024

@<SCITEGIC>MOL_PROPERTY
G
SciTegic.value.DoubleValue
47.387

@<SCITEGIC>MOL_PROPERTY
E
SciTegic.value.DoubleValue
20.718

@<SCITEGIC>MOL_PROPERTY
-TS
SciTegic.value.DoubleValue
26.668

@<SCITEGIC>MOL_PROPERTY
U+W
SciTegic.value.DoubleValue
2.833

@<SCITEGIC>MOL_PROPERTY
U
SciTegic.value.DoubleValue
4.530

@<SCITEGIC>MOL_PROPERTY
W
SciTegic.value.DoubleValue
-1.697

@<SCITEGIC>MOL_PROPERTY
W(PB)
SciTegic.value.DoubleValue
-3.699

@<SCITEGIC>MOL_PROPERTY
W(SA)
SciTegic.value.DoubleValue
2.002

@<SCITEGIC>MOL_PROPERTY
Valence
SciTegic.value.DoubleValue
12.224

@<SCITEGIC>MOL_PROPERTY
Coulomb
SciTegic.value.DoubleValue
-9.755

@<SCITEGIC>MOL_PROPERTY
VdW
SciTegic.value.DoubleValue
2.061

@<SCITEGIC>MOL_PROPERTY
VdW6
SciTegic.value.DoubleValue
-9.195

@<SCITEGIC>MOL_PROPERTY
VdW12
SciTegic.value.DoubleValue
11.257

@<SCITEGIC>MOL_PROPERTY
Bond
SciTegic.value.DoubleValue
0.216

@<SCITEGIC>MOL_PROPERTY
Angle
SciTegic.value.DoubleValue
2.754

@<SCITEGIC>MOL_PROPERTY
Pdih
SciTegic.value.DoubleValue
9.253

@<SCITEGIC>MOL_PROPERTY
Idih
SciTegic.value.DoubleValue
0.000

@<SCITEGIC>MOL_PROPERTY
Tether
SciTegic.value.DoubleValue
0.000

@<TRIPOS>MOLECULE
guest-5_vm2.mol2 : vm2 ligand conformer 4
          22          22           1
SMALL
USER_CHARGES
 
@<TRIPOS>ATOM
       1    C1      19.740250   19.125476   21.108411 C.3        1 MOL1        -0.1685
       2    H1      18.643976   19.106451   21.174029 H          1 MOL1         0.0832
       3    H2      19.984686   18.884707   20.064754 H          1 MOL1         0.0832
       4    C2      20.286867   20.540083   21.407716 C.3        1 MOL1        -0.1685
       5    H3      21.370888   20.483764   21.572218 H          1 MOL1         0.0832
       6    H4      20.167879   21.159262   20.507879 H          1 MOL1         0.0832
       7    C3      19.610982   21.285671   22.586253 C.3        1 MOL1        -0.1685
       8    H5      18.775692   21.878468   22.188998 H          1 MOL1         0.0832
       9    H6      20.323449   22.019363   22.988003 H          1 MOL1         0.0832
      10    C4      19.058249   20.421264   23.751795 C.3        1 MOL1        -0.1761
      11    H7      18.828309   21.090853   24.590711 H          1 MOL1         0.0832
      12    H8      18.093023   19.991846   23.453642 H          1 MOL1         0.0832
      13    C5      19.965445   19.285568   24.278262 C.3        1 MOL1         0.1218
      14    H9      19.634702   19.049924   25.300006 H          1 MOL1         0.0789
      15    C6      19.836120   17.983815   23.455473 C.3        1 MOL1        -0.1761
      16    H10     20.363582   17.185264   23.993381 H          1 MOL1         0.0832
      17    H11     18.780872   17.681758   23.438903 H          1 MOL1         0.0832
      18    C7      20.368035   18.029044   22.001577 C.3        1 MOL1        -0.1685
      19    H12     21.461341   18.134482   22.008102 H          1 MOL1         0.0832
      20    H13     20.168679   17.052333   21.540054 H          1 MOL1         0.0832
      21    O1      21.320053   19.707078   24.317513 O.3        1 MOL1        -0.5509
      22    H14     21.512940   19.976019   23.397324 H          1 MOL1         0.3779
@<TRIPOS>BOND
    1     1     2    1
    2     1     3    1
    3     1     4    1
    4     4     5    1
    5     4     6    1
    6     4     7    1
    7     7     8    1
    8     7     9    1
    9     7    10    1
   10    10    11    1
   11    10    12    1
   12    10    13    1
   13    13    14    1
   14    13    15    1
   15    15    16    1
   16    15    17    1
   17     1    18    1
   18    15    18    1
   19    18    19    1
   20    18    20    1
   21    13    21    1
   22    21    22    1
@<TRIPOS>SUBSTRUCTURE
       1 MOL1            1 RESIDUE      1      MOL     
@<SCITEGIC>MOL_PROPERTY
VM2 Rank
SciTegic.value.IntegerValue
4

@<SCITEGIC>MOL_PROPERTY
Conf_Id
SciTegic.value.IntegerValue
2388

@<SCITEGIC>MOL_PROPERTY
Probability
SciTegic.value.DoubleValue
4.08

@<SCITEGIC>MOL_PROPERTY
Sum Probability
SciTegic.value.DoubleValue
18.39

@<SCITEGIC>MOL_PROPERTY
Delta G
SciTegic.value.DoubleValue
0.105

@<SCITEGIC>MOL_PROPERTY
G
SciTegic.value.DoubleValue
47.468

@<SCITEGIC>MOL_PROPERTY
E
SciTegic.value.DoubleValue
20.454

@<SCITEGIC>MOL_PROPERTY
-TS
SciTegic.value.DoubleValue
27.013

@<SCITEGIC>MOL_PROPERTY
U+W
SciTegic.value.DoubleValue
2.569

@<SCITEGIC>MOL_PROPERTY
U
SciTegic.value.DoubleValue
3.922

@<SCITEGIC>MOL_PROPERTY
W
SciTegic.value.DoubleValue
-1.352

@<SCITEGIC>MOL_PROPERTY
W(PB)
SciTegic.value.DoubleValue
-3.332

@<SCITEGIC>MOL_PROPERTY
W(SA)
SciTegic.value.DoubleValue
1.980

@<SCITEGIC>MOL_PROPERTY
Valence
SciTegic.value.DoubleValue
12.571

@<SCITEGIC>MOL_PROPERTY
Coulomb
SciTegic.value.DoubleValue
-10.581

@<SCITEGIC>MOL_PROPERTY
VdW
SciTegic.value.DoubleValue
1.932

@<SCITEGIC>MOL_PROPERTY
VdW6
SciTegic.value.DoubleValue
-10.483

@<SCITEGIC>MOL_PROPERTY
VdW12
SciTegic.value.DoubleValue
12.414

@<SCITEGIC>MOL_PROPERTY
Bond
SciTegic.value.DoubleValue
0.268

@<SCITEGIC>MOL_PROPERTY
Angle
SciTegic.value.DoubleValue
3.728

@<SCITEGIC>MOL_PROPERTY
Pdih
SciTegic.value.DoubleValue
8.575

@<SCITEGIC>MOL_PROPERTY
Idih
SciTegic.value.DoubleValue
0.000

@<SCITEGIC>MOL_PROPERTY
Tether
SciTegic.value.DoubleValue
0.000

@<TRIPOS>MOLECULE
guest-5_vm2.mol2 : vm2 ligand conformer 5
          22          22           1
SMALL
USER_CHARGES
 
@<TRIPOS>ATOM
       1    C1      20.527999   19.175325   21.195719 C.3        1 MOL1        -0.1685
       2    H1      21.542006   19.524634   21.430471 H          1 MOL1         0.0832
       3    H2      20.575209   18.850020   20.147293 H          1 MOL1         0.0832
       4    C2      19.541203   20.360582   21.300035 C.3        1 MOL1        -0.1685
       5    H3      19.647993   20.967699   20.390670 H          1 MOL1         0.0832
       6    H4      18.501564   20.006186   21.306292 H          1 MOL1         0.0832
       7    C3      19.820629   21.280021   22.512707 C.3        1 MOL1        -0.1685
       8    H5      19.296252   22.231794   22.351867 H          1 MOL1         0.0832
       9    H6      20.888576   21.534229   22.549354 H          1 MOL1         0.0832
      10    C4      19.368048   20.714867   23.881853 C.3        1 MOL1        -0.1761
      11    H7      19.632925   21.440757   24.661705 H          1 MOL1         0.0832
      12    H8      18.272160   20.652546   23.896222 H          1 MOL1         0.0832
      13    C5      19.947283   19.340442   24.286467 C.3        1 MOL1         0.1218
      14    H9      19.604126   19.140283   25.311680 H          1 MOL1         0.0789
      15    C6      19.432752   18.186296   23.395860 C.3        1 MOL1        -0.1761
      16    H10     19.468991   17.259778   23.983442 H          1 MOL1         0.0832
      17    H11     18.368283   18.351568   23.184799 H          1 MOL1         0.0832
      18    C7      20.182324   17.935755   22.059231 C.3        1 MOL1        -0.1685
      19    H12     21.110682   17.384930   22.264311 H          1 MOL1         0.0832
      20    H13     19.566266   17.253866   21.457212 H          1 MOL1         0.0832
      21    O1      21.365763   19.384711   24.275128 O.3        1 MOL1        -0.5509
      22    H14     21.593880   19.480186   23.329015 H          1 MOL1         0.3779
@<TRIPOS>BOND
    1     1     2    1
    2     1     3    1
    3     1     4    1
    4     4     5    1
    5     4     6    1
    6     4     7    1
    7     7     8    1
    8     7     9    1
    9     7    10    1
   10    10    11    1
   11    10    12    1
   12    10    13    1
   13    13    14    1
   14    13    15    1
   15    15    16    1
   16    15    17    1
   17     1    18    1
   18    15    18    1
   19    18    19    1
   20    18    20    1
   21    13    21    1
   22    21    22    1
@<TRIPOS>SUBSTRUCTURE
       1 MOL1            1 RESIDUE      1      MOL     
@<SCITEGIC>MOL_PROPERTY
VM2 Rank
SciTegic.value.IntegerValue
5

@<SCITEGIC>MOL_PROPERTY
Conf_Id
SciTegic.value.IntegerValue
2139

@<SCITEGIC>MOL_PROPERTY
Probability
SciTegic.value.DoubleValue
4.08

@<SCITEGIC>MOL_PROPERTY
Sum Probability
SciTegic.value.DoubleValue
22.47

@<SCITEGIC>MOL_PROPERTY
Delta G
SciTegic.value.DoubleValue
0.106

@<SCITEGIC>MOL_PROPERTY
G
SciTegic.value.DoubleValue
47.469

@<SCITEGIC>MOL_PROPERTY
E
SciTegic.value.DoubleValue
20.455

@<SCITEGIC>MOL_PROPERTY
-TS
SciTegic.value.DoubleValue
27.013

@<SCITEGIC>MOL_PROPERTY
U+W
SciTegic.value.DoubleValue
2.571

@<SCITEGIC>MOL_PROPERTY
U
SciTegic.value.DoubleValue
3.922

@<SCITEGIC>MOL_PROPERTY
W
SciTegic.value.DoubleValue
-1.351

@<SCITEGIC>MOL_PROPERTY
W(PB)
SciTegic.value.DoubleValue
-3.348

@<SCITEGIC>MOL_PROPERTY
W(SA)
SciTegic.value.DoubleValue
1.997

@<SCITEGIC>MOL_PROPERTY
Valence
SciTegic.value.DoubleValue
12.571

@<SCITEGIC>MOL_PROPERTY
Coulomb
SciTegic.value.DoubleValue
-10.581

@<SCITEGIC>MOL_PROPERTY
VdW
SciTegic.value.DoubleValue
1.931

@<SCITEGIC>MOL_PROPERTY
VdW6
SciTegic.value.DoubleValue
-10.483

@<SCITEGIC>MOL_PROPERTY
VdW12
SciTegic.value.DoubleValue
12.414

@<SCITEGIC>MOL_PROPERTY
Bond
SciTegic.value.DoubleValue
0.268

@<SCITEGIC>MOL_PROPERTY
Angle
SciTegic.value.DoubleValue
3.728

@<SCITEGIC>MOL_PROPERTY
Pdih
SciTegic.value.DoubleValue
8.575

@<SCITEGIC>MOL_PROPERTY
Idih
SciTegic.value.DoubleValue
0.000

@<SCITEGIC>MOL_PROPERTY
Tether
SciTegic.value.DoubleValue
0.000

@<TRIPOS>MOLECULE
guest-5_vm2.mol2 : vm2 ligand conformer 6
          22          22           1
SMALL
USER_CHARGES
 
@<TRIPOS>ATOM
       1    C1      19.976566   19.186603   21.072938 C.3        1 MOL1        -0.1685
       2    H1      20.919989   19.695137   20.832459 H          1 MOL1         0.0832
       3    H2      19.599048   18.784971   20.122617 H          1 MOL1         0.0832
       4    C2      18.930441   20.189250   21.611269 C.3        1 MOL1        -0.1685
       5    H3      18.487981   20.724771   20.759980 H          1 MOL1         0.0832
       6    H4      18.096431   19.636837   22.063603 H          1 MOL1         0.0832
       7    C3      19.466035   21.248177   22.608007 C.3        1 MOL1        -0.1685
       8    H5      18.632828   21.582076   23.241719 H          1 MOL1         0.0832
       9    H6      19.773275   22.136490   22.039296 H          1 MOL1         0.0832
      10    C4      20.659595   20.835441   23.511479 C.3        1 MOL1        -0.1761
      11    H7      21.588132   20.895838   22.929132 H          1 MOL1         0.0832
      12    H8      20.764964   21.591756   24.300078 H          1 MOL1         0.0832
      13    C5      20.585631   19.445975   24.185191 C.3        1 MOL1         0.1218
      14    H9      21.255476   19.469125   25.056771 H          1 MOL1         0.0789
      15    C6      21.085142   18.306863   23.268031 C.3        1 MOL1        -0.1761
      16    H10     22.106034   18.541766   22.939911 H          1 MOL1         0.0832
      17    H11     21.171613   17.394258   23.872114 H          1 MOL1         0.0832
      18    C7      20.218524   17.990378   22.024004 C.3        1 MOL1        -0.1685
      19    H12     20.721775   17.195392   21.457041 H          1 MOL1         0.0832
      20    H13     19.256421   17.564198   22.338974 H          1 MOL1         0.0832
      21    O1      19.264066   19.175314   24.626080 O.3        1 MOL1        -0.5509
      22    H14     18.721607   19.254075   23.816255 H          1 MOL1         0.3779
@<TRIPOS>BOND
    1     1     2    1
    2     1     3    1
    3     1     4    1
    4     4     5    1
    5     4     6    1
    6     4     7    1
    7     7     8    1
    8     7     9    1
    9     7    10    1
   10    10    11    1
   11    10    12    1
   12    10    13    1
   13    13    14    1
   14    13    15    1
   15    15    16    1
   16    15    17    1
   17     1    18    1
   18    15    18    1
   19    18    19    1
   20    18    20    1
   21    13    21    1
   22    21    22    1
@<TRIPOS>SUBSTRUCTURE
       1 MOL1            1 RESIDUE      1      MOL     
@<SCITEGIC>MOL_PROPERTY
VM2 Rank
SciTegic.value.IntegerValue
6

@<SCITEGIC>MOL_PROPERTY
Conf_Id
SciTegic.value.IntegerValue
1995

@<SCITEGIC>MOL_PROPERTY
Probability
SciTegic.value.DoubleValue
4.07

@<SCITEGIC>MOL_PROPERTY
Sum Probability
SciTegic.value.DoubleValue
26.54

@<SCITEGIC>MOL_PROPERTY
Delta G
SciTegic.value.DoubleValue
0.107

@<SCITEGIC>MOL_PROPERTY
G
SciTegic.value.DoubleValue
47.470

@<SCITEGIC>MOL_PROPERTY
E
SciTegic.value.DoubleValue
20.456

@<SCITEGIC>MOL_PROPERTY
-TS
SciTegic.value.DoubleValue
27.013

@<SCITEGIC>MOL_PROPERTY
U+W
SciTegic.value.DoubleValue
2.572

@<SCITEGIC>MOL_PROPERTY
U
SciTegic.value.DoubleValue
3.922

@<SCITEGIC>MOL_PROPERTY
W
SciTegic.value.DoubleValue
-1.350

@<SCITEGIC>MOL_PROPERTY
W(PB)
SciTegic.value.DoubleValue
-3.345

@<SCITEGIC>MOL_PROPERTY
W(SA)
SciTegic.value.DoubleValue
1.995

@<SCITEGIC>MOL_PROPERTY
Valence
SciTegic.value.DoubleValue
12.571

@<SCITEGIC>MOL_PROPERTY
Coulomb
SciTegic.value.DoubleValue
-10.581

@<SCITEGIC>MOL_PROPERTY
VdW
SciTegic.value.DoubleValue
1.932

@<SCITEGIC>MOL_PROPERTY
VdW6
SciTegic.value.DoubleValue
-10.483

@<SCITEGIC>MOL_PROPERTY
VdW12
SciTegic.value.DoubleValue
12.414

@<SCITEGIC>MOL_PROPERTY
Bond
SciTegic.value.DoubleValue
0.268

@<SCITEGIC>MOL_PROPERTY
Angle
SciTegic.value.DoubleValue
3.728

@<SCITEGIC>MOL_PROPERTY
Pdih
SciTegic.value.DoubleValue
8.575

@<SCITEGIC>MOL_PROPERTY
Idih
SciTegic.value.DoubleValue
0.000

@<SCITEGIC>MOL_PROPERTY
Tether
SciTegic.value.DoubleValue
0.000

@<TRIPOS>MOLECULE
guest-5_vm2.mol2 : vm2 ligand conformer 7
          22          22           1
SMALL
USER_CHARGES
 
@<TRIPOS>ATOM
       1    C1      19.281119   18.897404   21.379737 C.3        1 MOL1        -0.1685
       2    H1      19.086731   18.518247   20.366968 H          1 MOL1         0.0832
       3    H2      18.321708   18.806859   21.905730 H          1 MOL1         0.0832
       4    C2      19.671900   20.389710   21.280749 C.3        1 MOL1        -0.1685
       5    H3      20.722032   20.501101   20.978593 H          1 MOL1         0.0832
       6    H4      19.076256   20.840265   20.475052 H          1 MOL1         0.0832
       7    C3      19.381286   21.182078   22.577558 C.3        1 MOL1        -0.1685
       8    H5      18.360142   20.970598   22.922552 H          1 MOL1         0.0832
       9    H6      19.395365   22.253882   22.337247 H          1 MOL1         0.0832
      10    C4      20.385851   20.941733   23.731627 C.3        1 MOL1        -0.1761
      11    H7      21.365425   21.342039   23.439651 H          1 MOL1         0.0832
      12    H8      20.069152   21.537987   24.597322 H          1 MOL1         0.0832
      13    C5      20.567221   19.478623   24.194964 C.3        1 MOL1         0.1218
      14    H9      21.230350   19.502755   25.071638 H          1 MOL1         0.0789
      15    C6      21.247910   18.590898   23.127920 C.3        1 MOL1        -0.1761
      16    H10     22.043442   19.170767   22.642289 H          1 MOL1         0.0832
      17    H11     21.763902   17.771318   23.644681 H          1 MOL1         0.0832
      18    C7      20.334281   17.969626   22.036816 C.3        1 MOL1        -0.1685
      19    H12     19.815409   17.096276   22.455557 H          1 MOL1         0.0832
      20    H13     20.985971   17.570244   21.247689 H          1 MOL1         0.0832
      21    O1      19.316432   18.927927   24.577630 O.3        1 MOL1        -0.5509
      22    H14     18.818295   18.861678   23.738729 H          1 MOL1         0.3779
@<TRIPOS>BOND
    1     1     2    1
    2     1     3    1
    3     1     4    1
    4     4     5    1
    5     4     6    1
    6     4     7    1
    7     7     8    1
    8     7     9    1
    9     7    10    1
   10    10    11    1
   11    10    12    1
   12    10    13    1
   13    13    14    1
   14    13    15    1
   15    15    16    1
   16    15    17    1
   17     1    18    1
   18    15    18    1
   19    18    19    1
   20    18    20    1
   21    13    21    1
   22    21    22    1
@<TRIPOS>SUBSTRUCTURE
       1 MOL1            1 RESIDUE      1      MOL     
@<SCITEGIC>MOL_PROPERTY
VM2 Rank
SciTegic.value.IntegerValue
7

@<SCITEGIC>MOL_PROPERTY
Conf_Id
SciTegic.value.IntegerValue
124

@<SCITEGIC>MOL_PROPERTY
Probability
SciTegic.value.DoubleValue
3.88

@<SCITEGIC>MOL_PROPERTY
Sum Probability
SciTegic.value.DoubleValue
30.42

@<SCITEGIC>MOL_PROPERTY
Delta G
SciTegic.value.DoubleValue
0.135

@<SCITEGIC>MOL_PROPERTY
G
SciTegic.value.DoubleValue
47.498

@<SCITEGIC>MOL_PROPERTY
E
SciTegic.value.DoubleValue
20.485

@<SCITEGIC>MOL_PROPERTY
-TS
SciTegic.value.DoubleValue
27.013

@<SCITEGIC>MOL_PROPERTY
U+W
SciTegic.value.DoubleValue
2.600

@<SCITEGIC>MOL_PROPERTY
U
SciTegic.value.DoubleValue
3.922

@<SCITEGIC>MOL_PROPERTY
W
SciTegic.value.DoubleValue
-1.322

@<SCITEGIC>MOL_PROPERTY
W(PB)
SciTegic.value.DoubleValue
-3.302

@<SCITEGIC>MOL_PROPERTY
W(SA)
SciTegic.value.DoubleValue
1.980

@<SCITEGIC>MOL_PROPERTY
Valence
SciTegic.value.DoubleValue
12.571

@<SCITEGIC>MOL_PROPERTY
Coulomb
SciTegic.value.DoubleValue
-10.581

@<SCITEGIC>MOL_PROPERTY
VdW
SciTegic.value.DoubleValue
1.932

@<SCITEGIC>MOL_PROPERTY
VdW6
SciTegic.value.DoubleValue
-10.483

@<SCITEGIC>MOL_PROPERTY
VdW12
SciTegic.value.DoubleValue
12.414

@<SCITEGIC>MOL_PROPERTY
Bond
SciTegic.value.DoubleValue
0.268

@<SCITEGIC>MOL_PROPERTY
Angle
SciTegic.value.DoubleValue
3.728

@<SCITEGIC>MOL_PROPERTY
Pdih
SciTegic.value.DoubleValue
8.575

@<SCITEGIC>MOL_PROPERTY
Idih
SciTegic.value.DoubleValue
0.000

@<SCITEGIC>MOL_PROPERTY
Tether
SciTegic.value.DoubleValue
0.000

@<TRIPOS>MOLECULE
guest-5_vm2.mol2 : vm2 ligand conformer 8
          22          22           1
SMALL
USER_CHARGES
 
@<TRIPOS>ATOM
       1    C1      19.871005   19.104074   20.841474 C.3        1 MOL1        -0.1685
       2    H1      18.800139   18.929618   20.669195 H          1 MOL1         0.0832
       3    H2      20.361720   18.926159   19.874836 H          1 MOL1         0.0832
       4    C2      20.092184   20.582536   21.242146 C.3        1 MOL1        -0.1685
       5    H3      21.147974   20.771479   21.479243 H          1 MOL1         0.0832
       6    H4      19.861844   21.203494   20.365637 H          1 MOL1         0.0832
       7    C3      19.175139   21.034661   22.402466 C.3        1 MOL1        -0.1685
       8    H5      18.192649   20.554011   22.300186 H          1 MOL1         0.0832
       9    H6      18.986004   22.112715   22.308078 H          1 MOL1         0.0832
      10    C4      19.736818   20.769576   23.821527 C.3        1 MOL1        -0.1761
      11    H7      20.418208   21.588620   24.085887 H          1 MOL1         0.0832
      12    H8      18.902655   20.827341   24.533779 H          1 MOL1         0.0832
      13    C5      20.496626   19.438687   24.027070 C.3        1 MOL1         0.1218
      14    H9      21.526292   19.565729   23.663100 H          1 MOL1         0.0789
      15    C6      19.877682   18.224963   23.298929 C.3        1 MOL1        -0.1761
      16    H10     20.140254   17.314364   23.853891 H          1 MOL1         0.0832
      17    H11     18.781911   18.285828   23.310876 H          1 MOL1         0.0832
      18    C7      20.402839   18.061420   21.851479 C.3        1 MOL1        -0.1685
      19    H12     21.501160   18.085573   21.856825 H          1 MOL1         0.0832
      20    H13     20.126952   17.061635   21.489465 H          1 MOL1         0.0832
      21    O1      20.533708   19.162083   25.421909 O.3        1 MOL1        -0.5509
      22    H14     20.974317   19.926117   25.849578 H          1 MOL1         0.3779
@<TRIPOS>BOND
    1     1     2    1
    2     1     3    1
    3     1     4    1
    4     4     5    1
    5     4     6    1
    6     4     7    1
    7     7     8    1
    8     7     9    1
    9     7    10    1
   10    10    11    1
   11    10    12    1
   12    10    13    1
   13    13    14    1
   14    13    15    1
   15    15    16    1
   16    15    17    1
   17     1    18    1
   18    15    18    1
   19    18    19    1
   20    18    20    1
   21    13    21    1
   22    21    22    1
@<TRIPOS>SUBSTRUCTURE
       1 MOL1            1 RESIDUE      1      MOL     
@<SCITEGIC>MOL_PROPERTY
VM2 Rank
SciTegic.value.IntegerValue
8

@<SCITEGIC>MOL_PROPERTY
Conf_Id
SciTegic.value.IntegerValue
1799

@<SCITEGIC>MOL_PROPERTY
Probability
SciTegic.value.DoubleValue
3.12

@<SCITEGIC>MOL_PROPERTY
Sum Probability
SciTegic.value.DoubleValue
33.55

@<SCITEGIC>MOL_PROPERTY
Delta G
SciTegic.value.DoubleValue
0.265

@<SCITEGIC>MOL_PROPERTY
G
SciTegic.value.DoubleValue
47.628

@<SCITEGIC>MOL_PROPERTY
E
SciTegic.value.DoubleValue
20.970

@<SCITEGIC>MOL_PROPERTY
-TS
SciTegic.value.DoubleValue
26.658

@<SCITEGIC>MOL_PROPERTY
U+W
SciTegic.value.DoubleValue
3.085

@<SCITEGIC>MOL_PROPERTY
U
SciTegic.value.DoubleValue
5.433

@<SCITEGIC>MOL_PROPERTY
W
SciTegic.value.DoubleValue
-2.348

@<SCITEGIC>MOL_PROPERTY
W(PB)
SciTegic.value.DoubleValue
-4.358

@<SCITEGIC>MOL_PROPERTY
W(SA)
SciTegic.value.DoubleValue
2.010

@<SCITEGIC>MOL_PROPERTY
Valence
SciTegic.value.DoubleValue
11.903

@<SCITEGIC>MOL_PROPERTY
Coulomb
SciTegic.value.DoubleValue
-8.719

@<SCITEGIC>MOL_PROPERTY
VdW
SciTegic.value.DoubleValue
2.250

@<SCITEGIC>MOL_PROPERTY
VdW6
SciTegic.value.DoubleValue
-8.926

@<SCITEGIC>MOL_PROPERTY
VdW12
SciTegic.value.DoubleValue
11.176

@<SCITEGIC>MOL_PROPERTY
Bond
SciTegic.value.DoubleValue
0.223

@<SCITEGIC>MOL_PROPERTY
Angle
SciTegic.value.DoubleValue
2.471

@<SCITEGIC>MOL_PROPERTY
Pdih
SciTegic.value.DoubleValue
9.209

@<SCITEGIC>MOL_PROPERTY
Idih
SciTegic.value.DoubleValue
0.000

@<SCITEGIC>MOL_PROPERTY
Tether
SciTegic.value.DoubleValue
0.000

@<TRIPOS>MOLECULE
guest-5_vm2.mol2 : vm2 ligand conformer 9
          22          22           1
SMALL
USER_CHARGES
 
@<TRIPOS>ATOM
       1    C1      20.356676   19.228619   20.994604 C.3        1 MOL1        -0.1685
       2    H1      21.414333   19.431739   21.210731 H          1 MOL1         0.0832
       3    H2      20.319300   18.892698   19.949295 H          1 MOL1         0.0832
       4    C2      19.511629   20.520679   21.103159 C.3        1 MOL1        -0.1685
       5    H3      19.792086   21.192560   20.280502 H          1 MOL1         0.0832
       6    H4      18.452389   20.277784   20.942278 H          1 MOL1         0.0832
       7    C3      19.662161   21.296316   22.431997 C.3        1 MOL1        -0.1685
       8    H5      18.967509   22.147100   22.412983 H          1 MOL1         0.0832
       9    H6      20.668828   21.732679   22.487945 H          1 MOL1         0.0832
      10    C4      19.390148   20.464987   23.709709 C.3        1 MOL1        -0.1761
      11    H7      19.307438   21.165081   24.551818 H          1 MOL1         0.0832
      12    H8      18.422312   19.951949   23.641565 H          1 MOL1         0.0832
      13    C5      20.518453   19.456338   24.019489 C.3        1 MOL1         0.1218
      14    H9      21.470028   19.897622   23.689945 H          1 MOL1         0.0789
      15    C6      20.355702   18.078050   23.337826 C.3        1 MOL1        -0.1761
      16    H10     21.334804   17.581787   23.347585 H          1 MOL1         0.0832
      17    H11     19.690328   17.447792   23.943234 H          1 MOL1         0.0832
      18    C7      19.820367   18.082919   21.884251 C.3        1 MOL1        -0.1685
      19    H12     18.722336   18.113591   21.896901 H          1 MOL1         0.0832
      20    H13     20.082058   17.120899   21.422823 H          1 MOL1         0.0832
      21    O1      20.570863   19.250091   25.425965 O.3        1 MOL1        -0.5509
      22    H14     21.324484   18.646508   25.594864 H          1 MOL1         0.3779
@<TRIPOS>BOND
    1     1     2    1
    2     1     3    1
    3     1     4    1
    4     4     5    1
    5     4     6    1
    6     4     7    1
    7     7     8    1
    8     7     9    1
    9     7    10    1
   10    10    11    1
   11    10    12    1
   12    10    13    1
   13    13    14    1
   14    13    15    1
   15    15    16    1
   16    15    17    1
   17     1    18    1
   18    15    18    1
   19    18    19    1
   20    18    20    1
   21    13    21    1
   22    21    22    1
@<TRIPOS>SUBSTRUCTURE
       1 MOL1            1 RESIDUE      1      MOL     
@<SCITEGIC>MOL_PROPERTY
VM2 Rank
SciTegic.value.IntegerValue
9

@<SCITEGIC>MOL_PROPERTY
Conf_Id
SciTegic.value.IntegerValue
1339

@<SCITEGIC>MOL_PROPERTY
Probability
SciTegic.value.DoubleValue
2.99

@<SCITEGIC>MOL_PROPERTY
Sum Probability
SciTegic.value.DoubleValue
36.54

@<SCITEGIC>MOL_PROPERTY
Delta G
SciTegic.value.DoubleValue
0.291

@<SCITEGIC>MOL_PROPERTY
G
SciTegic.value.DoubleValue
47.653

@<SCITEGIC>MOL_PROPERTY
E
SciTegic.value.DoubleValue
20.996

@<SCITEGIC>MOL_PROPERTY
-TS
SciTegic.value.DoubleValue
26.657

@<SCITEGIC>MOL_PROPERTY
U+W
SciTegic.value.DoubleValue
3.111

@<SCITEGIC>MOL_PROPERTY
U
SciTegic.value.DoubleValue
5.433

@<SCITEGIC>MOL_PROPERTY
W
SciTegic.value.DoubleValue
-2.322

@<SCITEGIC>MOL_PROPERTY
W(PB)
SciTegic.value.DoubleValue
-4.348

@<SCITEGIC>MOL_PROPERTY
W(SA)
SciTegic.value.DoubleValue
2.026

@<SCITEGIC>MOL_PROPERTY
Valence
SciTegic.value.DoubleValue
11.903

@<SCITEGIC>MOL_PROPERTY
Coulomb
SciTegic.value.DoubleValue
-8.719

@<SCITEGIC>MOL_PROPERTY
VdW
SciTegic.value.DoubleValue
2.250

@<SCITEGIC>MOL_PROPERTY
VdW6
SciTegic.value.DoubleValue
-8.926

@<SCITEGIC>MOL_PROPERTY
VdW12
SciTegic.value.DoubleValue
11.175

@<SCITEGIC>MOL_PROPERTY
Bond
SciTegic.value.DoubleValue
0.223

@<SCITEGIC>MOL_PROPERTY
Angle
SciTegic.value.DoubleValue
2.471

@<SCITEGIC>MOL_PROPERTY
Pdih
SciTegic.value.DoubleValue
9.209

@<SCITEGIC>MOL_PROPERTY
Idih
SciTegic.value.DoubleValue
0.000

@<SCITEGIC>MOL_PROPERTY
Tether
SciTegic.value.DoubleValue
0.000

@<TRIPOS>MOLECULE
guest-5_vm2.mol2 : vm2 ligand conformer 10
          22          22           1
SMALL
USER_CHARGES
 
@<TRIPOS>ATOM
       1    C1      19.872198   19.104460   20.842160 C.3        1 MOL1        -0.1685
       2    H1      20.363498   18.926291   19.875861 H          1 MOL1         0.0832
       3    H2      18.801297   18.931235   20.668824 H          1 MOL1         0.0832
       4    C2      20.094480   20.582810   21.243064 C.3        1 MOL1        -0.1685
       5    H3      21.150075   20.770626   21.481922 H          1 MOL1         0.0832
       6    H4      19.866441   21.203887   20.366042 H          1 MOL1         0.0832
       7    C3      19.176084   21.036794   22.401722 C.3        1 MOL1        -0.1685
       8    H5      18.192102   20.560017   22.296020 H          1 MOL1         0.0832
       9    H6      18.991399   22.115720   22.308806 H          1 MOL1         0.0832
      10    C4      19.732681   20.767053   23.822102 C.3        1 MOL1        -0.1761
      11    H7      20.412505   21.584394   24.095313 H          1 MOL1         0.0832
      12    H8      18.897819   20.819743   24.533677 H          1 MOL1         0.0832
      13    C5      20.495383   19.438139   24.025996 C.3        1 MOL1         0.1218
      14    H9      21.523362   19.570636   23.659191 H          1 MOL1         0.0789
      15    C6      19.875060   18.224074   23.298757 C.3        1 MOL1        -0.1761
      16    H10     20.130227   17.309629   23.850270 H          1 MOL1         0.0832
      17    H11     18.779334   18.289802   23.306648 H          1 MOL1         0.0832
      18    C7      20.402032   18.060627   21.852118 C.3        1 MOL1        -0.1685
      19    H12     20.125176   17.061507   21.488886 H          1 MOL1         0.0832
      20    H13     21.500395   18.083472   21.858056 H          1 MOL1         0.0832
      21    O1      20.538083   19.164043   25.421082 O.3        1 MOL1        -0.5509
      22    H14     21.088929   18.361321   25.534330 H          1 MOL1         0.3779
@<TRIPOS>BOND
    1     1     2    1
    2     1     3    1
    3     1     4    1
    4     4     5    1
    5     4     6    1
    6     4     7    1
    7     7     8    1
    8     7     9    1
    9     7    10    1
   10    10    11    1
   11    10    12    1
   12    10    13    1
   13    13    14    1
   14    13    15    1
   15    15    16    1
   16    15    17    1
   17     1    18    1
   18    15    18    1
   19    18    19    1
   20    18    20    1
   21    13    21    1
   22    21    22    1
@<TRIPOS>SUBSTRUCTURE
       1 MOL1            1 RESIDUE      1      MOL     
@<SCITEGIC>MOL_PROPERTY
VM2 Rank
SciTegic.value.IntegerValue
10

@<SCITEGIC>MOL_PROPERTY
Conf_Id
SciTegic.value.IntegerValue
2314

@<SCITEGIC>MOL_PROPERTY
Probability
SciTegic.value.DoubleValue
2.95

@<SCITEGIC>MOL_PROPERTY
Sum Probability
SciTegic.value.DoubleValue
39.48

@<SCITEGIC>MOL_PROPERTY
Delta G
SciTegic.value.DoubleValue
0.300

@<SCITEGIC>MOL_PROPERTY
G
SciTegic.value.DoubleValue
47.662

@<SCITEGIC>MOL_PROPERTY
E
SciTegic.value.DoubleValue
20.999

@<SCITEGIC>MOL_PROPERTY
-TS
SciTegic.value.DoubleValue
26.663

@<SCITEGIC>MOL_PROPERTY
U+W
SciTegic.value.DoubleValue
3.114

@<SCITEGIC>MOL_PROPERTY
U
SciTegic.value.DoubleValue
5.411

@<SCITEGIC>MOL_PROPERTY
W
SciTegic.value.DoubleValue
-2.297

@<SCITEGIC>MOL_PROPERTY
W(PB)
SciTegic.value.DoubleValue
-4.300

@<SCITEGIC>MOL_PROPERTY
W(SA)
SciTegic.value.DoubleValue
2.003

@<SCITEGIC>MOL_PROPERTY
Valence
SciTegic.value.DoubleValue
11.909

@<SCITEGIC>MOL_PROPERTY
Coulomb
SciTegic.value.DoubleValue
-8.733

@<SCITEGIC>MOL_PROPERTY
VdW
SciTegic.value.DoubleValue
2.236

@<SCITEGIC>MOL_PROPERTY
VdW6
SciTegic.value.DoubleValue
-8.936

@<SCITEGIC>MOL_PROPERTY
VdW12
SciTegic.value.DoubleValue
11.172

@<SCITEGIC>MOL_PROPERTY
Bond
SciTegic.value.DoubleValue
0.223

@<SCITEGIC>MOL_PROPERTY
Angle
SciTegic.value.DoubleValue
2.458

@<SCITEGIC>MOL_PROPERTY
Pdih
SciTegic.value.DoubleValue
9.228

@<SCITEGIC>MOL_PROPERTY
Idih
SciTegic.value.DoubleValue
0.000

@<SCITEGIC>MOL_PROPERTY
Tether
SciTegic.value.DoubleValue
0.000

@<TRIPOS>MOLECULE
guest-5_vm2.mol2 : vm2 ligand conformer 11
          22          22           1
SMALL
USER_CHARGES
 
@<TRIPOS>ATOM
       1    C1      19.513778   19.008116   21.087830 C.3        1 MOL1        -0.1685
       2    H1      19.494413   18.677351   20.040392 H          1 MOL1         0.0832
       3    H2      18.559316   18.685812   21.525701 H          1 MOL1         0.0832
       4    C2      19.631064   20.551452   21.090826 C.3        1 MOL1        -0.1685
       5    H3      20.617722   20.842415   20.705179 H          1 MOL1         0.0832
       6    H4      18.900380   20.959281   20.379045 H          1 MOL1         0.0832
       7    C3      19.398144   21.227705   22.461505 C.3        1 MOL1        -0.1685
       8    H5      18.341286   21.125859   22.743707 H          1 MOL1         0.0832
       9    H6      19.574733   22.305788   22.345837 H          1 MOL1         0.0832
      10    C4      20.291814   20.701089   23.610944 C.3        1 MOL1        -0.1761
      11    H7      21.349212   20.714130   23.316433 H          1 MOL1         0.0832
      12    H8      20.199932   21.402340   24.450759 H          1 MOL1         0.0832
      13    C5      19.880202   19.290226   24.088094 C.3        1 MOL1         0.1218
      14    H9      18.790660   19.193527   23.976782 H          1 MOL1         0.0789
      15    C6      20.551239   18.130627   23.317160 C.3        1 MOL1        -0.1761
      16    H10     21.545684   17.939215   23.742073 H          1 MOL1         0.0832
      17    H11     19.963636   17.223078   23.506698 H          1 MOL1         0.0832
      18    C7      20.705537   18.312635   21.786440 C.3        1 MOL1        -0.1685
      19    H12     21.628664   18.868796   21.573762 H          1 MOL1         0.0832
      20    H13     20.851052   17.319696   21.339538 H          1 MOL1         0.0832
      21    O1      20.214222   19.156149   25.464201 O.3        1 MOL1        -0.5509
      22    H14     19.719296   19.852896   25.944003 H          1 MOL1         0.3779
@<TRIPOS>BOND
    1     1     2    1
    2     1     3    1
    3     1     4    1
    4     4     5    1
    5     4     6    1
    6     4     7    1
    7     7     8    1
    8     7     9    1
    9     7    10    1
   10    10    11    1
   11    10    12    1
   12    10    13    1
   13    13    14    1
   14    13    15    1
   15    15    16    1
   16    15    17    1
   17     1    18    1
   18    15    18    1
   19    18    19    1
   20    18    20    1
   21    13    21    1
   22    21    22    1
@<TRIPOS>SUBSTRUCTURE
       1 MOL1            1 RESIDUE      1      MOL     
@<SCITEGIC>MOL_PROPERTY
VM2 Rank
SciTegic.value.IntegerValue
11

@<SCITEGIC>MOL_PROPERTY
Conf_Id
SciTegic.value.IntegerValue
2288

@<SCITEGIC>MOL_PROPERTY
Probability
SciTegic.value.DoubleValue
2.93

@<SCITEGIC>MOL_PROPERTY
Sum Probability
SciTegic.value.DoubleValue
42.41

@<SCITEGIC>MOL_PROPERTY
Delta G
SciTegic.value.DoubleValue
0.303

@<SCITEGIC>MOL_PROPERTY
G
SciTegic.value.DoubleValue
47.665

@<SCITEGIC>MOL_PROPERTY
E
SciTegic.value.DoubleValue
21.002

@<SCITEGIC>MOL_PROPERTY
-TS
SciTegic.value.DoubleValue
26.663

@<SCITEGIC>MOL_PROPERTY
U+W
SciTegic.value.DoubleValue
3.118

@<SCITEGIC>MOL_PROPERTY
U
SciTegic.value.DoubleValue
5.411

@<SCITEGIC>MOL_PROPERTY
W
SciTegic.value.DoubleValue
-2.294

@<SCITEGIC>MOL_PROPERTY
W(PB)
SciTegic.value.DoubleValue
-4.303

@<SCITEGIC>MOL_PROPERTY
W(SA)
SciTegic.value.DoubleValue
2.009

@<SCITEGIC>MOL_PROPERTY
Valence
SciTegic.value.DoubleValue
11.909

@<SCITEGIC>MOL_PROPERTY
Coulomb
SciTegic.value.DoubleValue
-8.733

@<SCITEGIC>MOL_PROPERTY
VdW
SciTegic.value.DoubleValue
2.236

@<SCITEGIC>MOL_PROPERTY
VdW6
SciTegic.value.DoubleValue
-8.936

@<SCITEGIC>MOL_PROPERTY
VdW12
SciTegic.value.DoubleValue
11.172

@<SCITEGIC>MOL_PROPERTY
Bond
SciTegic.value.DoubleValue
0.223

@<SCITEGIC>MOL_PROPERTY
Angle
SciTegic.value.DoubleValue
2.457

@<SCITEGIC>MOL_PROPERTY
Pdih
SciTegic.value.DoubleValue
9.228

@<SCITEGIC>MOL_PROPERTY
Idih
SciTegic.value.DoubleValue
0.000

@<SCITEGIC>MOL_PROPERTY
Tether
SciTegic.value.DoubleValue
0.000

@<TRIPOS>MOLECULE
guest-5_vm2.mol2 : vm2 ligand conformer 12
          22          22           1
SMALL
USER_CHARGES
 
@<TRIPOS>ATOM
       1    C1      20.358352   19.228541   20.995474 C.3        1 MOL1        -0.1685
       2    H1      21.415717   19.431276   21.213390 H          1 MOL1         0.0832
       3    H2      20.322633   18.893496   19.949829 H          1 MOL1         0.0832
       4    C2      19.513236   20.520714   21.103680 C.3        1 MOL1        -0.1685
       5    H3      19.794468   21.192637   20.281316 H          1 MOL1         0.0832
       6    H4      18.454176   20.277806   20.941611 H          1 MOL1         0.0832
       7    C3      19.662230   21.296608   22.432634 C.3        1 MOL1        -0.1685
       8    H5      18.967411   22.147275   22.412220 H          1 MOL1         0.0832
       9    H6      20.668752   21.733252   22.489325 H          1 MOL1         0.0832
      10    C4      19.388161   20.465227   23.709693 C.3        1 MOL1        -0.1761
      11    H7      19.297438   21.166801   24.549365 H          1 MOL1         0.0832
      12    H8      18.421631   19.950020   23.636367 H          1 MOL1         0.0832
      13    C5      20.517184   19.456485   24.018526 C.3        1 MOL1         0.1218
      14    H9      21.469416   19.892744   23.684197 H          1 MOL1         0.0789
      15    C6      20.350194   18.078144   23.339114 C.3        1 MOL1        -0.1761
      16    H10     21.327748   17.579243   23.357428 H          1 MOL1         0.0832
      17    H11     19.681881   17.452542   23.945817 H          1 MOL1         0.0832
      18    C7      19.820813   18.081773   21.883169 C.3        1 MOL1        -0.1685
      19    H12     20.086179   17.120121   21.423137 H          1 MOL1         0.0832
      20    H13     18.722717   18.110483   21.891544 H          1 MOL1         0.0832
      21    O1      20.575829   19.250507   25.424709 O.3        1 MOL1        -0.5509
      22    H14     20.757496   20.123920   25.830621 H          1 MOL1         0.3779
@<TRIPOS>BOND
    1     1     2    1
    2     1     3    1
    3     1     4    1
    4     4     5    1
    5     4     6    1
    6     4     7    1
    7     7     8    1
    8     7     9    1
    9     7    10    1
   10    10    11    1
   11    10    12    1
   12    10    13    1
   13    13    14    1
   14    13    15    1
   15    15    16    1
   16    15    17    1
   17     1    18    1
   18    15    18    1
   19    18    19    1
   20    18    20    1
   21    13    21    1
   22    21    22    1
@<TRIPOS>SUBSTRUCTURE
       1 MOL1            1 RESIDUE      1      MOL     
@<SCITEGIC>MOL_PROPERTY
VM2 Rank
SciTegic.value.IntegerValue
12

@<SCITEGIC>MOL_PROPERTY
Conf_Id
SciTegic.value.IntegerValue
2371

@<SCITEGIC>MOL_PROPERTY
Probability
SciTegic.value.DoubleValue
2.86

@<SCITEGIC>MOL_PROPERTY
Sum Probability
SciTegic.value.DoubleValue
45.27

@<SCITEGIC>MOL_PROPERTY
Delta G
SciTegic.value.DoubleValue
0.317

@<SCITEGIC>MOL_PROPERTY
G
SciTegic.value.DoubleValue
47.680

@<SCITEGIC>MOL_PROPERTY
E
SciTegic.value.DoubleValue
21.017

@<SCITEGIC>MOL_PROPERTY
-TS
SciTegic.value.DoubleValue
26.663

@<SCITEGIC>MOL_PROPERTY
U+W
SciTegic.value.DoubleValue
3.132

@<SCITEGIC>MOL_PROPERTY
U
SciTegic.value.DoubleValue
5.411

@<SCITEGIC>MOL_PROPERTY
W
SciTegic.value.DoubleValue
-2.279

@<SCITEGIC>MOL_PROPERTY
W(PB)
SciTegic.value.DoubleValue
-4.300

@<SCITEGIC>MOL_PROPERTY
W(SA)
SciTegic.value.DoubleValue
2.021

@<SCITEGIC>MOL_PROPERTY
Valence
SciTegic.value.DoubleValue
11.909

@<SCITEGIC>MOL_PROPERTY
Coulomb
SciTegic.value.DoubleValue
-8.733

@<SCITEGIC>MOL_PROPERTY
VdW
SciTegic.value.DoubleValue
2.236

@<SCITEGIC>MOL_PROPERTY
VdW6
SciTegic.value.DoubleValue
-8.936

@<SCITEGIC>MOL_PROPERTY
VdW12
SciTegic.value.DoubleValue
11.172

@<SCITEGIC>MOL_PROPERTY
Bond
SciTegic.value.DoubleValue
0.223

@<SCITEGIC>MOL_PROPERTY
Angle
SciTegic.value.DoubleValue
2.458

@<SCITEGIC>MOL_PROPERTY
Pdih
SciTegic.value.DoubleValue
9.228

@<SCITEGIC>MOL_PROPERTY
Idih
SciTegic.value.DoubleValue
0.000

@<SCITEGIC>MOL_PROPERTY
Tether
SciTegic.value.DoubleValue
0.000

@<TRIPOS>MOLECULE
guest-5_vm2.mol2 : vm2 ligand conformer 13
          22          22           1
SMALL
USER_CHARGES
 
@<TRIPOS>ATOM
       1    C1      19.976962   19.129566   20.830865 C.3        1 MOL1        -0.1685
       2    H1      20.957985   19.448795   20.453297 H          1 MOL1         0.0832
       3    H2      19.447697   18.706237   19.966275 H          1 MOL1         0.0832
       4    C2      19.192783   20.366142   21.332109 C.3        1 MOL1        -0.1685
       5    H3      18.949821   20.984062   20.456863 H          1 MOL1         0.0832
       6    H4      18.230524   20.069553   21.771084 H          1 MOL1         0.0832
       7    C3      20.006882   21.234771   22.319253 C.3        1 MOL1        -0.1685
       8    H5      19.668508   22.276917   22.239792 H          1 MOL1         0.0832
       9    H6      21.061864   21.244333   22.013155 H          1 MOL1         0.0832
      10    C4      19.901923   20.809308   23.805001 C.3        1 MOL1        -0.1761
      11    H7      20.737371   21.268878   24.350245 H          1 MOL1         0.0832
      12    H8      18.987588   21.244364   24.228945 H          1 MOL1         0.0832
      13    C5      19.877063   19.289602   24.089084 C.3        1 MOL1         0.1218
      14    H9      18.852897   18.922434   23.930667 H          1 MOL1         0.0789
      15    C6      20.827766   18.453568   23.203860 C.3        1 MOL1        -0.1761
      16    H10     21.758989   19.002154   23.012980 H          1 MOL1         0.0832
      17    H11     21.112932   17.548400   23.756555 H          1 MOL1         0.0832
      18    C7      20.171830   18.005849   21.874595 C.3        1 MOL1        -0.1685
      19    H12     20.795286   17.222434   21.422599 H          1 MOL1         0.0832
      20    H13     19.203289   17.532735   22.086756 H          1 MOL1         0.0832
      21    O1      20.230790   19.089194   25.452234 O.3        1 MOL1        -0.5509
      22    H14     19.582064   19.591088   25.988930 H          1 MOL1         0.3779
@<TRIPOS>BOND
    1     1     2    1
    2     1     3    1
    3     1     4    1
    4     4     5    1
    5     4     6    1
    6     4     7    1
    7     7     8    1
    8     7     9    1
    9     7    10    1
   10    10    11    1
   11    10    12    1
   12    10    13    1
   13    13    14    1
   14    13    15    1
   15    15    16    1
   16    15    17    1
   17     1    18    1
   18    15    18    1
   19    18    19    1
   20    18    20    1
   21    13    21    1
   22    21    22    1
@<TRIPOS>SUBSTRUCTURE
       1 MOL1            1 RESIDUE      1      MOL     
@<SCITEGIC>MOL_PROPERTY
VM2 Rank
SciTegic.value.IntegerValue
13

@<SCITEGIC>MOL_PROPERTY
Conf_Id
SciTegic.value.IntegerValue
1256

@<SCITEGIC>MOL_PROPERTY
Probability
SciTegic.value.DoubleValue
2.85

@<SCITEGIC>MOL_PROPERTY
Sum Probability
SciTegic.value.DoubleValue
48.12

@<SCITEGIC>MOL_PROPERTY
Delta G
SciTegic.value.DoubleValue
0.320

@<SCITEGIC>MOL_PROPERTY
G
SciTegic.value.DoubleValue
47.683

@<SCITEGIC>MOL_PROPERTY
E
SciTegic.value.DoubleValue
21.025

@<SCITEGIC>MOL_PROPERTY
-TS
SciTegic.value.DoubleValue
26.657

@<SCITEGIC>MOL_PROPERTY
U+W
SciTegic.value.DoubleValue
3.141

@<SCITEGIC>MOL_PROPERTY
U
SciTegic.value.DoubleValue
5.433

@<SCITEGIC>MOL_PROPERTY
W
SciTegic.value.DoubleValue
-2.293

@<SCITEGIC>MOL_PROPERTY
W(PB)
SciTegic.value.DoubleValue
-4.326

@<SCITEGIC>MOL_PROPERTY
W(SA)
SciTegic.value.DoubleValue
2.033

@<SCITEGIC>MOL_PROPERTY
Valence
SciTegic.value.DoubleValue
11.903

@<SCITEGIC>MOL_PROPERTY
Coulomb
SciTegic.value.DoubleValue
-8.719

@<SCITEGIC>MOL_PROPERTY
VdW
SciTegic.value.DoubleValue
2.250

@<SCITEGIC>MOL_PROPERTY
VdW6
SciTegic.value.DoubleValue
-8.926

@<SCITEGIC>MOL_PROPERTY
VdW12
SciTegic.value.DoubleValue
11.176

@<SCITEGIC>MOL_PROPERTY
Bond
SciTegic.value.DoubleValue
0.223

@<SCITEGIC>MOL_PROPERTY
Angle
SciTegic.value.DoubleValue
2.471

@<SCITEGIC>MOL_PROPERTY
Pdih
SciTegic.value.DoubleValue
9.209

@<SCITEGIC>MOL_PROPERTY
Idih
SciTegic.value.DoubleValue
0.000

@<SCITEGIC>MOL_PROPERTY
Tether
SciTegic.value.DoubleValue
0.000

@<TRIPOS>MOLECULE
guest-5_vm2.mol2 : vm2 ligand conformer 14
          22          22           1
SMALL
USER_CHARGES
 
@<TRIPOS>ATOM
       1    C1      19.578553   19.119344   21.015835 C.3        1 MOL1        -0.1685
       2    H1      19.644979   18.866266   19.948871 H          1 MOL1         0.0832
       3    H2      18.513381   19.057467   21.277127 H          1 MOL1         0.0832
       4    C2      20.108049   20.560936   21.199660 C.3        1 MOL1        -0.1685
       5    H3      21.204994   20.543177   21.255708 H          1 MOL1         0.0832
       6    H4      19.870262   21.144312   20.299588 H          1 MOL1         0.0832
       7    C3      19.537109   21.318160   22.423039 C.3        1 MOL1        -0.1685
       8    H5      18.566546   21.755343   22.151340 H          1 MOL1         0.0832
       9    H6      20.197730   22.169197   22.638198 H          1 MOL1         0.0832
      10    C4      19.346150   20.487165   23.715699 C.3        1 MOL1        -0.1761
      11    H7      19.254699   21.187880   24.556081 H          1 MOL1         0.0832
      12    H8      18.384955   19.959173   23.667641 H          1 MOL1         0.0832
      13    C5      20.469984   19.466664   24.005680 C.3        1 MOL1         0.1218
      14    H9      21.432784   19.868330   23.658487 H          1 MOL1         0.0789
      15    C6      20.210702   18.098365   23.335716 C.3        1 MOL1        -0.1761
      16    H10     20.889971   17.357498   23.777777 H          1 MOL1         0.0832
      17    H11     19.195718   17.760811   23.582461 H          1 MOL1         0.0832
      18    C7      20.401761   18.069544   21.800352 C.3        1 MOL1        -0.1685
      19    H12     20.128023   17.068752   21.439506 H          1 MOL1         0.0832
      20    H13     21.467691   18.191525   21.564195 H          1 MOL1         0.0832
      21    O1      20.533691   19.257822   25.411019 O.3        1 MOL1        -0.5509
      22    H14     20.754775   20.123135   25.814735 H          1 MOL1         0.3779
@<TRIPOS>BOND
    1     1     2    1
    2     1     3    1
    3     1     4    1
    4     4     5    1
    5     4     6    1
    6     4     7    1
    7     7     8    1
    8     7     9    1
    9     7    10    1
   10    10    11    1
   11    10    12    1
   12    10    13    1
   13    13    14    1
   14    13    15    1
   15    15    16    1
   16    15    17    1
   17     1    18    1
   18    15    18    1
   19    18    19    1
   20    18    20    1
   21    13    21    1
   22    21    22    1
@<TRIPOS>SUBSTRUCTURE
       1 MOL1            1 RESIDUE      1      MOL     
@<SCITEGIC>MOL_PROPERTY
VM2 Rank
SciTegic.value.IntegerValue
14

@<SCITEGIC>MOL_PROPERTY
Conf_Id
SciTegic.value.IntegerValue
2362

@<SCITEGIC>MOL_PROPERTY
Probability
SciTegic.value.DoubleValue
2.82

@<SCITEGIC>MOL_PROPERTY
Sum Probability
SciTegic.value.DoubleValue
50.94

@<SCITEGIC>MOL_PROPERTY
Delta G
SciTegic.value.DoubleValue
0.327

@<SCITEGIC>MOL_PROPERTY
G
SciTegic.value.DoubleValue
47.689

@<SCITEGIC>MOL_PROPERTY
E
SciTegic.value.DoubleValue
21.017

@<SCITEGIC>MOL_PROPERTY
-TS
SciTegic.value.DoubleValue
26.672

@<SCITEGIC>MOL_PROPERTY
U+W
SciTegic.value.DoubleValue
3.132

@<SCITEGIC>MOL_PROPERTY
U
SciTegic.value.DoubleValue
5.406

@<SCITEGIC>MOL_PROPERTY
W
SciTegic.value.DoubleValue
-2.274

@<SCITEGIC>MOL_PROPERTY
W(PB)
SciTegic.value.DoubleValue
-4.290

@<SCITEGIC>MOL_PROPERTY
W(SA)
SciTegic.value.DoubleValue
2.016

@<SCITEGIC>MOL_PROPERTY
Valence
SciTegic.value.DoubleValue
12.011

@<SCITEGIC>MOL_PROPERTY
Coulomb
SciTegic.value.DoubleValue
-8.863

@<SCITEGIC>MOL_PROPERTY
VdW
SciTegic.value.DoubleValue
2.258

@<SCITEGIC>MOL_PROPERTY
VdW6
SciTegic.value.DoubleValue
-8.944

@<SCITEGIC>MOL_PROPERTY
VdW12
SciTegic.value.DoubleValue
11.203

@<SCITEGIC>MOL_PROPERTY
Bond
SciTegic.value.DoubleValue
0.224

@<SCITEGIC>MOL_PROPERTY
Angle
SciTegic.value.DoubleValue
2.419

@<SCITEGIC>MOL_PROPERTY
Pdih
SciTegic.value.DoubleValue
9.368

@<SCITEGIC>MOL_PROPERTY
Idih
SciTegic.value.DoubleValue
0.000

@<SCITEGIC>MOL_PROPERTY
Tether
SciTegic.value.DoubleValue
0.000

@<TRIPOS>MOLECULE
guest-5_vm2.mol2 : vm2 ligand conformer 15
          22          22           1
SMALL
USER_CHARGES
 
@<TRIPOS>ATOM
       1    C1      20.392549   19.259855   20.970277 C.3        1 MOL1        -0.1685
       2    H1      21.393907   19.689404   21.109977 H          1 MOL1         0.0832
       3    H2      20.346324   18.962439   19.913675 H          1 MOL1         0.0832
       4    C2      19.324660   20.347993   21.230889 C.3        1 MOL1        -0.1685
       5    H3      19.214889   20.943067   20.313986 H          1 MOL1         0.0832
       6    H4      18.341809   19.894666   21.418490 H          1 MOL1         0.0832
       7    C3      19.714757   21.314501   22.374966 C.3        1 MOL1        -0.1685
       8    H5      19.043988   22.183860   22.343163 H          1 MOL1         0.0832
       9    H6      20.723766   21.708271   22.191380 H          1 MOL1         0.0832
      10    C4      19.652471   20.708185   23.797354 C.3        1 MOL1        -0.1761
      11    H7      20.010511   21.465840   24.506915 H          1 MOL1         0.0832
      12    H8      18.605466   20.515979   24.065415 H          1 MOL1         0.0832
      13    C5      20.475829   19.415948   23.998667 C.3        1 MOL1         0.1218
      14    H9      21.493825   19.565723   23.611220 H          1 MOL1         0.0789
      15    C6      19.831419   18.192956   23.307630 C.3        1 MOL1        -0.1761
      16    H10     18.738833   18.282511   23.364352 H          1 MOL1         0.0832
      17    H11     20.080424   17.278765   23.862479 H          1 MOL1         0.0832
      18    C7      20.250220   17.981775   21.831829 C.3        1 MOL1        -0.1685
      19    H12     19.516572   17.313379   21.360716 H          1 MOL1         0.0832
      20    H13     21.206504   17.441647   21.804272 H          1 MOL1         0.0832
      21    O1      20.544096   19.156788   25.395387 O.3        1 MOL1        -0.5509
      22    H14     21.115627   18.368577   25.508112 H          1 MOL1         0.3779
@<TRIPOS>BOND
    1     1     2    1
    2     1     3    1
    3     1     4    1
    4     4     5    1
    5     4     6    1
    6     4     7    1
    7     7     8    1
    8     7     9    1
    9     7    10    1
   10    10    11    1
   11    10    12    1
   12    10    13    1
   13    13    14    1
   14    13    15    1
   15    15    16    1
   16    15    17    1
   17     1    18    1
   18    15    18    1
   19    18    19    1
   20    18    20    1
   21    13    21    1
   22    21    22    1
@<TRIPOS>SUBSTRUCTURE
       1 MOL1            1 RESIDUE      1      MOL     
@<SCITEGIC>MOL_PROPERTY
VM2 Rank
SciTegic.value.IntegerValue
15

@<SCITEGIC>MOL_PROPERTY
Conf_Id
SciTegic.value.IntegerValue
1731

@<SCITEGIC>MOL_PROPERTY
Probability
SciTegic.value.DoubleValue
2.76

@<SCITEGIC>MOL_PROPERTY
Sum Probability
SciTegic.value.DoubleValue
53.70

@<SCITEGIC>MOL_PROPERTY
Delta G
SciTegic.value.DoubleValue
0.338

@<SCITEGIC>MOL_PROPERTY
G
SciTegic.value.DoubleValue
47.701

@<SCITEGIC>MOL_PROPERTY
E
SciTegic.value.DoubleValue
21.028

@<SCITEGIC>MOL_PROPERTY
-TS
SciTegic.value.DoubleValue
26.672

@<SCITEGIC>MOL_PROPERTY
U+W
SciTegic.value.DoubleValue
3.143

@<SCITEGIC>MOL_PROPERTY
U
SciTegic.value.DoubleValue
5.406

@<SCITEGIC>MOL_PROPERTY
W
SciTegic.value.DoubleValue
-2.262

@<SCITEGIC>MOL_PROPERTY
W(PB)
SciTegic.value.DoubleValue
-4.270

@<SCITEGIC>MOL_PROPERTY
W(SA)
SciTegic.value.DoubleValue
2.008

@<SCITEGIC>MOL_PROPERTY
Valence
SciTegic.value.DoubleValue
12.011

@<SCITEGIC>MOL_PROPERTY
Coulomb
SciTegic.value.DoubleValue
-8.863

@<SCITEGIC>MOL_PROPERTY
VdW
SciTegic.value.DoubleValue
2.258

@<SCITEGIC>MOL_PROPERTY
VdW6
SciTegic.value.DoubleValue
-8.944

@<SCITEGIC>MOL_PROPERTY
VdW12
SciTegic.value.DoubleValue
11.203

@<SCITEGIC>MOL_PROPERTY
Bond
SciTegic.value.DoubleValue
0.224

@<SCITEGIC>MOL_PROPERTY
Angle
SciTegic.value.DoubleValue
2.419

@<SCITEGIC>MOL_PROPERTY
Pdih
SciTegic.value.DoubleValue
9.368

@<SCITEGIC>MOL_PROPERTY
Idih
SciTegic.value.DoubleValue
0.000

@<SCITEGIC>MOL_PROPERTY
Tether
SciTegic.value.DoubleValue
0.000

@<TRIPOS>MOLECULE
guest-5_vm2.mol2 : vm2 ligand conformer 16
          22          22           1
SMALL
USER_CHARGES
 
@<TRIPOS>ATOM
       1    C1      20.235977   19.281169   20.945511 C.3        1 MOL1        -0.1685
       2    H1      21.238574   19.728255   20.985606 H          1 MOL1         0.0832
       3    H2      20.081753   18.973783   19.902150 H          1 MOL1         0.0832
       4    C2      19.152334   20.325706   21.301897 C.3        1 MOL1        -0.1685
       5    H3      18.910663   20.908135   20.402245 H          1 MOL1         0.0832
       6    H4      18.222127   19.808991   21.574782 H          1 MOL1         0.0832
       7    C3      19.542983   21.319604   22.422422 C.3        1 MOL1        -0.1685
       8    H5      18.623275   21.781640   22.806658 H          1 MOL1         0.0832
       9    H6      20.128127   22.139729   21.984311 H          1 MOL1         0.0832
      10    C4      20.347879   20.733709   23.608529 C.3        1 MOL1        -0.1761
      11    H7      21.412767   20.704383   23.343698 H          1 MOL1         0.0832
      12    H8      20.273038   21.438503   24.447142 H          1 MOL1         0.0832
      13    C5      19.901517   19.326745   24.066483 C.3        1 MOL1         0.1218
      14    H9      18.814359   19.223855   23.938566 H          1 MOL1         0.0789
      15    C6      20.620564   18.199233   23.291882 C.3        1 MOL1        -0.1761
      16    H10     21.703413   18.378001   23.314251 H          1 MOL1         0.0832
      17    H11     20.460955   17.251901   23.823669 H          1 MOL1         0.0832
      18    C7      20.162034   18.010536   21.825995 C.3        1 MOL1        -0.1685
      19    H12     20.786561   17.230852   21.369065 H          1 MOL1         0.0832
      20    H13     19.136202   17.617634   21.813577 H          1 MOL1         0.0832
      21    O1      20.222712   19.181297   25.444281 O.3        1 MOL1        -0.5509
      22    H14     19.714564   19.867136   25.925990 H          1 MOL1         0.3779
@<TRIPOS>BOND
    1     1     2    1
    2     1     3    1
    3     1     4    1
    4     4     5    1
    5     4     6    1
    6     4     7    1
    7     7     8    1
    8     7     9    1
    9     7    10    1
   10    10    11    1
   11    10    12    1
   12    10    13    1
   13    13    14    1
   14    13    15    1
   15    15    16    1
   16    15    17    1
   17     1    18    1
   18    15    18    1
   19    18    19    1
   20    18    20    1
   21    13    21    1
   22    21    22    1
@<TRIPOS>SUBSTRUCTURE
       1 MOL1            1 RESIDUE      1      MOL     
@<SCITEGIC>MOL_PROPERTY
VM2 Rank
SciTegic.value.IntegerValue
16

@<SCITEGIC>MOL_PROPERTY
Conf_Id
SciTegic.value.IntegerValue
2378

@<SCITEGIC>MOL_PROPERTY
Probability
SciTegic.value.DoubleValue
2.65

@<SCITEGIC>MOL_PROPERTY
Sum Probability
SciTegic.value.DoubleValue
56.34

@<SCITEGIC>MOL_PROPERTY
Delta G
SciTegic.value.DoubleValue
0.364

@<SCITEGIC>MOL_PROPERTY
G
SciTegic.value.DoubleValue
47.726

@<SCITEGIC>MOL_PROPERTY
E
SciTegic.value.DoubleValue
21.054

@<SCITEGIC>MOL_PROPERTY
-TS
SciTegic.value.DoubleValue
26.672

@<SCITEGIC>MOL_PROPERTY
U+W
SciTegic.value.DoubleValue
3.169

@<SCITEGIC>MOL_PROPERTY
U
SciTegic.value.DoubleValue
5.406

@<SCITEGIC>MOL_PROPERTY
W
SciTegic.value.DoubleValue
-2.237

@<SCITEGIC>MOL_PROPERTY
W(PB)
SciTegic.value.DoubleValue
-4.266

@<SCITEGIC>MOL_PROPERTY
W(SA)
SciTegic.value.DoubleValue
2.030

@<SCITEGIC>MOL_PROPERTY
Valence
SciTegic.value.DoubleValue
12.011

@<SCITEGIC>MOL_PROPERTY
Coulomb
SciTegic.value.DoubleValue
-8.863

@<SCITEGIC>MOL_PROPERTY
VdW
SciTegic.value.DoubleValue
2.258

@<SCITEGIC>MOL_PROPERTY
VdW6
SciTegic.value.DoubleValue
-8.944

@<SCITEGIC>MOL_PROPERTY
VdW12
SciTegic.value.DoubleValue
11.203

@<SCITEGIC>MOL_PROPERTY
Bond
SciTegic.value.DoubleValue
0.224

@<SCITEGIC>MOL_PROPERTY
Angle
SciTegic.value.DoubleValue
2.419

@<SCITEGIC>MOL_PROPERTY
Pdih
SciTegic.value.DoubleValue
9.368

@<SCITEGIC>MOL_PROPERTY
Idih
SciTegic.value.DoubleValue
0.000

@<SCITEGIC>MOL_PROPERTY
Tether
SciTegic.value.DoubleValue
0.000

@<TRIPOS>MOLECULE
guest-5_vm2.mol2 : vm2 ligand conformer 17
          22          22           1
SMALL
USER_CHARGES
 
@<TRIPOS>ATOM
       1    C1      19.453324   19.042520   21.068071 C.3        1 MOL1        -0.1685
       2    H1      19.416552   18.747293   20.010484 H          1 MOL1         0.0832
       3    H2      18.413678   18.999772   21.420285 H          1 MOL1         0.0832
       4    C2      19.969881   20.497295   21.163719 C.3        1 MOL1        -0.1685
       5    H3      21.067635   20.525407   21.134703 H          1 MOL1         0.0832
       6    H4      19.628265   21.038719   20.270953 H          1 MOL1         0.0832
       7    C3      19.430563   21.248760   22.404551 C.3        1 MOL1        -0.1685
       8    H5      18.336490   21.155961   22.439873 H          1 MOL1         0.0832
       9    H6      19.636044   22.320849   22.281546 H          1 MOL1         0.0832
      10    C4      20.027106   20.794862   23.758361 C.3        1 MOL1        -0.1761
      11    H7      21.083467   21.089323   23.807504 H          1 MOL1         0.0832
      12    H8      19.521741   21.352740   24.557791 H          1 MOL1         0.0832
      13    C5      19.904520   19.283754   24.058109 C.3        1 MOL1         0.1218
      14    H9      18.868770   18.958332   23.884369 H          1 MOL1         0.0789
      15    C6      20.867607   18.432709   23.199799 C.3        1 MOL1        -0.1761
      16    H10     21.800199   18.990862   23.045785 H          1 MOL1         0.0832
      17    H11     21.154686   17.527326   23.750683 H          1 MOL1         0.0832
      18    C7      20.302721   17.993928   21.826353 C.3        1 MOL1        -0.1685
      19    H12     21.146140   17.690565   21.191093 H          1 MOL1         0.0832
      20    H13     19.691648   17.091043   21.961870 H          1 MOL1         0.0832
      21    O1      20.230276   19.084173   25.428037 O.3        1 MOL1        -0.5509
      22    H14     20.092383   18.131909   25.614617 H          1 MOL1         0.3779
@<TRIPOS>BOND
    1     1     2    1
    2     1     3    1
    3     1     4    1
    4     4     5    1
    5     4     6    1
    6     4     7    1
    7     7     8    1
    8     7     9    1
    9     7    10    1
   10    10    11    1
   11    10    12    1
   12    10    13    1
   13    13    14    1
   14    13    15    1
   15    15    16    1
   16    15    17    1
   17     1    18    1
   18    15    18    1
   19    18    19    1
   20    18    20    1
   21    13    21    1
   22    21    22    1
@<TRIPOS>SUBSTRUCTURE
       1 MOL1            1 RESIDUE      1      MOL     
@<SCITEGIC>MOL_PROPERTY
VM2 Rank
SciTegic.value.IntegerValue
17

@<SCITEGIC>MOL_PROPERTY
Conf_Id
SciTegic.value.IntegerValue
2142

@<SCITEGIC>MOL_PROPERTY
Probability
SciTegic.value.DoubleValue
2.61

@<SCITEGIC>MOL_PROPERTY
Sum Probability
SciTegic.value.DoubleValue
58.96

@<SCITEGIC>MOL_PROPERTY
Delta G
SciTegic.value.DoubleValue
0.371

@<SCITEGIC>MOL_PROPERTY
G
SciTegic.value.DoubleValue
47.734

@<SCITEGIC>MOL_PROPERTY
E
SciTegic.value.DoubleValue
21.061

@<SCITEGIC>MOL_PROPERTY
-TS
SciTegic.value.DoubleValue
26.672

@<SCITEGIC>MOL_PROPERTY
U+W
SciTegic.value.DoubleValue
3.177

@<SCITEGIC>MOL_PROPERTY
U
SciTegic.value.DoubleValue
5.406

@<SCITEGIC>MOL_PROPERTY
W
SciTegic.value.DoubleValue
-2.229

@<SCITEGIC>MOL_PROPERTY
W(PB)
SciTegic.value.DoubleValue
-4.246

@<SCITEGIC>MOL_PROPERTY
W(SA)
SciTegic.value.DoubleValue
2.017

@<SCITEGIC>MOL_PROPERTY
Valence
SciTegic.value.DoubleValue
12.011

@<SCITEGIC>MOL_PROPERTY
Coulomb
SciTegic.value.DoubleValue
-8.863

@<SCITEGIC>MOL_PROPERTY
VdW
SciTegic.value.DoubleValue
2.258

@<SCITEGIC>MOL_PROPERTY
VdW6
SciTegic.value.DoubleValue
-8.944

@<SCITEGIC>MOL_PROPERTY
VdW12
SciTegic.value.DoubleValue
11.203

@<SCITEGIC>MOL_PROPERTY
Bond
SciTegic.value.DoubleValue
0.224

@<SCITEGIC>MOL_PROPERTY
Angle
SciTegic.value.DoubleValue
2.419

@<SCITEGIC>MOL_PROPERTY
Pdih
SciTegic.value.DoubleValue
9.368

@<SCITEGIC>MOL_PROPERTY
Idih
SciTegic.value.DoubleValue
0.000

@<SCITEGIC>MOL_PROPERTY
Tether
SciTegic.value.DoubleValue
0.000

@<TRIPOS>MOLECULE
guest-5_vm2.mol2 : vm2 ligand conformer 18
          22          22           1
SMALL
USER_CHARGES
 
@<TRIPOS>ATOM
       1    C1      20.354918   19.228197   20.993723 C.3        1 MOL1        -0.1685
       2    H1      21.413000   19.431179   21.208058 H          1 MOL1         0.0832
       3    H2      20.315636   18.892169   19.948516 H          1 MOL1         0.0832
       4    C2      19.510549   20.520453   21.103723 C.3        1 MOL1        -0.1685
       5    H3      19.789954   21.192103   20.280513 H          1 MOL1         0.0832
       6    H4      18.450875   20.278187   20.944752 H          1 MOL1         0.0832
       7    C3      19.664478   21.295998   22.432119 C.3        1 MOL1        -0.1685
       8    H5      18.972833   22.149254   22.412804 H          1 MOL1         0.0832
       9    H6      20.672717   21.728884   22.487489 H          1 MOL1         0.0832
      10    C4      19.389641   20.466119   23.709955 C.3        1 MOL1        -0.1761
      11    H7      19.307508   21.169415   24.549628 H          1 MOL1         0.0832
      12    H8      18.420267   19.956187   23.638169 H          1 MOL1         0.0832
      13    C5      20.516948   19.456229   24.020467 C.3        1 MOL1         0.1218
      14    H9      21.470048   19.896927   23.695122 H          1 MOL1         0.0789
      15    C6      20.359640   18.078315   23.336592 C.3        1 MOL1        -0.1761
      16    H10     21.343710   17.591691   23.343972 H          1 MOL1         0.0832
      17    H11     19.703783   17.437822   23.940946 H          1 MOL1         0.0832
      18    C7      19.820496   18.082654   21.884536 C.3        1 MOL1        -0.1685
      19    H12     20.082112   17.120776   21.422749 H          1 MOL1         0.0832
      20    H13     18.722483   18.112610   21.899114 H          1 MOL1         0.0832
      21    O1      20.569330   19.250036   25.425885 O.3        1 MOL1        -0.5509
      22    H14     19.696537   18.888958   25.684942 H          1 MOL1         0.3779
@<TRIPOS>BOND
    1     1     2    1
    2     1     3    1
    3     1     4    1
    4     4     5    1
    5     4     6    1
    6     4     7    1
    7     7     8    1
    8     7     9    1
    9     7    10    1
   10    10    11    1
   11    10    12    1
   12    10    13    1
   13    13    14    1
   14    13    15    1
   15    15    16    1
   16    15    17    1
   17     1    18    1
   18    15    18    1
   19    18    19    1
   20    18    20    1
   21    13    21    1
   22    21    22    1
@<TRIPOS>SUBSTRUCTURE
       1 MOL1            1 RESIDUE      1      MOL     
@<SCITEGIC>MOL_PROPERTY
VM2 Rank
SciTegic.value.IntegerValue
18

@<SCITEGIC>MOL_PROPERTY
Conf_Id
SciTegic.value.IntegerValue
278

@<SCITEGIC>MOL_PROPERTY
Probability
SciTegic.value.DoubleValue
2.61

@<SCITEGIC>MOL_PROPERTY
Sum Probability
SciTegic.value.DoubleValue
61.57

@<SCITEGIC>MOL_PROPERTY
Delta G
SciTegic.value.DoubleValue
0.372

@<SCITEGIC>MOL_PROPERTY
G
SciTegic.value.DoubleValue
47.735

@<SCITEGIC>MOL_PROPERTY
E
SciTegic.value.DoubleValue
21.108

@<SCITEGIC>MOL_PROPERTY
-TS
SciTegic.value.DoubleValue
26.627

@<SCITEGIC>MOL_PROPERTY
U+W
SciTegic.value.DoubleValue
3.223

@<SCITEGIC>MOL_PROPERTY
U
SciTegic.value.DoubleValue
5.233

@<SCITEGIC>MOL_PROPERTY
W
SciTegic.value.DoubleValue
-2.010

@<SCITEGIC>MOL_PROPERTY
W(PB)
SciTegic.value.DoubleValue
-4.024

@<SCITEGIC>MOL_PROPERTY
W(SA)
SciTegic.value.DoubleValue
2.014

@<SCITEGIC>MOL_PROPERTY
Valence
SciTegic.value.DoubleValue
12.274

@<SCITEGIC>MOL_PROPERTY
Coulomb
SciTegic.value.DoubleValue
-9.233

@<SCITEGIC>MOL_PROPERTY
VdW
SciTegic.value.DoubleValue
2.191

@<SCITEGIC>MOL_PROPERTY
VdW6
SciTegic.value.DoubleValue
-8.952

@<SCITEGIC>MOL_PROPERTY
VdW12
SciTegic.value.DoubleValue
11.143

@<SCITEGIC>MOL_PROPERTY
Bond
SciTegic.value.DoubleValue
0.217

@<SCITEGIC>MOL_PROPERTY
Angle
SciTegic.value.DoubleValue
2.514

@<SCITEGIC>MOL_PROPERTY
Pdih
SciTegic.value.DoubleValue
9.543

@<SCITEGIC>MOL_PROPERTY
Idih
SciTegic.value.DoubleValue
0.000

@<SCITEGIC>MOL_PROPERTY
Tether
SciTegic.value.DoubleValue
0.000

@<TRIPOS>MOLECULE
guest-5_vm2.mol2 : vm2 ligand conformer 19
          22          22           1
SMALL
USER_CHARGES
 
@<TRIPOS>ATOM
       1    C1      19.517307   19.009252   21.085194 C.3        1 MOL1        -0.1685
       2    H1      18.561527   18.685837   21.519438 H          1 MOL1         0.0832
       3    H2      19.502054   18.679516   20.037360 H          1 MOL1         0.0832
       4    C2      19.633097   20.552481   21.090356 C.3        1 MOL1        -0.1685
       5    H3      20.620458   20.845276   20.707910 H          1 MOL1         0.0832
       6    H4      18.903776   20.960462   20.377267 H          1 MOL1         0.0832
       7    C3      19.395219   21.225619   22.461523 C.3        1 MOL1        -0.1685
       8    H5      18.338474   21.118717   22.742352 H          1 MOL1         0.0832
       9    H6      19.567258   22.304640   22.347909 H          1 MOL1         0.0832
      10    C4      20.289156   20.701252   23.611745 C.3        1 MOL1        -0.1761
      11    H7      21.346777   20.721170   23.318637 H          1 MOL1         0.0832
      12    H8      20.188461   21.399688   24.453450 H          1 MOL1         0.0832
      13    C5      19.880854   19.289951   24.089898 C.3        1 MOL1         0.1218
      14    H9      18.790323   19.196415   23.987635 H          1 MOL1         0.0789
      15    C6      20.543477   18.126375   23.316530 C.3        1 MOL1        -0.1761
      16    H10     21.534068   17.916372   23.741089 H          1 MOL1         0.0832
      17    H11     19.942712   17.225401   23.497025 H          1 MOL1         0.0832
      18    C7      20.706805   18.314314   21.787749 C.3        1 MOL1        -0.1685
      19    H12     21.630134   18.872612   21.581567 H          1 MOL1         0.0832
      20    H13     20.856170   17.323091   21.338231 H          1 MOL1         0.0832
      21    O1      20.220084   19.158757   25.464005 O.3        1 MOL1        -0.5509
      22    H14     21.190303   19.279506   25.521880 H          1 MOL1         0.3779
@<TRIPOS>BOND
    1     1     2    1
    2     1     3    1
    3     1     4    1
    4     4     5    1
    5     4     6    1
    6     4     7    1
    7     7     8    1
    8     7     9    1
    9     7    10    1
   10    10    11    1
   11    10    12    1
   12    10    13    1
   13    13    14    1
   14    13    15    1
   15    15    16    1
   16    15    17    1
   17     1    18    1
   18    15    18    1
   19    18    19    1
   20    18    20    1
   21    13    21    1
   22    21    22    1
@<TRIPOS>SUBSTRUCTURE
       1 MOL1            1 RESIDUE      1      MOL     
@<SCITEGIC>MOL_PROPERTY
VM2 Rank
SciTegic.value.IntegerValue
19

@<SCITEGIC>MOL_PROPERTY
Conf_Id
SciTegic.value.IntegerValue
2386

@<SCITEGIC>MOL_PROPERTY
Probability
SciTegic.value.DoubleValue
2.53

@<SCITEGIC>MOL_PROPERTY
Sum Probability
SciTegic.value.DoubleValue
64.09

@<SCITEGIC>MOL_PROPERTY
Delta G
SciTegic.value.DoubleValue
0.391

@<SCITEGIC>MOL_PROPERTY
G
SciTegic.value.DoubleValue
47.754

@<SCITEGIC>MOL_PROPERTY
E
SciTegic.value.DoubleValue
21.126

@<SCITEGIC>MOL_PROPERTY
-TS
SciTegic.value.DoubleValue
26.627

@<SCITEGIC>MOL_PROPERTY
U+W
SciTegic.value.DoubleValue
3.241

@<SCITEGIC>MOL_PROPERTY
U
SciTegic.value.DoubleValue
5.233

@<SCITEGIC>MOL_PROPERTY
W
SciTegic.value.DoubleValue
-1.991

@<SCITEGIC>MOL_PROPERTY
W(PB)
SciTegic.value.DoubleValue
-4.009

@<SCITEGIC>MOL_PROPERTY
W(SA)
SciTegic.value.DoubleValue
2.017

@<SCITEGIC>MOL_PROPERTY
Valence
SciTegic.value.DoubleValue
12.274

@<SCITEGIC>MOL_PROPERTY
Coulomb
SciTegic.value.DoubleValue
-9.233

@<SCITEGIC>MOL_PROPERTY
VdW
SciTegic.value.DoubleValue
2.191

@<SCITEGIC>MOL_PROPERTY
VdW6
SciTegic.value.DoubleValue
-8.952

@<SCITEGIC>MOL_PROPERTY
VdW12
SciTegic.value.DoubleValue
11.143

@<SCITEGIC>MOL_PROPERTY
Bond
SciTegic.value.DoubleValue
0.217

@<SCITEGIC>MOL_PROPERTY
Angle
SciTegic.value.DoubleValue
2.513

@<SCITEGIC>MOL_PROPERTY
Pdih
SciTegic.value.DoubleValue
9.544

@<SCITEGIC>MOL_PROPERTY
Idih
SciTegic.value.DoubleValue
0.000

@<SCITEGIC>MOL_PROPERTY
Tether
SciTegic.value.DoubleValue
0.000

@<TRIPOS>MOLECULE
guest-5_vm2.mol2 : vm2 ligand conformer 20
          22          22           1
SMALL
USER_CHARGES
 
@<TRIPOS>ATOM
       1    C1      19.578672   19.118767   21.016296 C.3        1 MOL1        -0.1685
       2    H1      19.644965   18.865537   19.949352 H          1 MOL1         0.0832
       3    H2      18.513650   19.055906   21.277941 H          1 MOL1         0.0832
       4    C2      20.106959   20.560803   21.199386 C.3        1 MOL1        -0.1685
       5    H3      21.203983   20.544012   21.254435 H          1 MOL1         0.0832
       6    H4      19.867896   21.143783   20.299397 H          1 MOL1         0.0832
       7    C3      19.537092   21.318197   22.423121 C.3        1 MOL1        -0.1685
       8    H5      18.566723   21.756252   22.152181 H          1 MOL1         0.0832
       9    H6      20.198615   22.168696   22.637727 H          1 MOL1         0.0832
      10    C4      19.347087   20.488472   23.716794 C.3        1 MOL1        -0.1761
      11    H7      19.266288   21.190844   24.557398 H          1 MOL1         0.0832
      12    H8      18.382691   19.966175   23.671635 H          1 MOL1         0.0832
      13    C5      20.468863   19.465789   24.005465 C.3        1 MOL1         0.1218
      14    H9      21.431992   19.868693   23.661197 H          1 MOL1         0.0789
      15    C6      20.209905   18.097290   23.335292 C.3        1 MOL1        -0.1761
      16    H10     20.889623   17.355699   23.775924 H          1 MOL1         0.0832
      17    H11     19.193933   17.758049   23.575713 H          1 MOL1         0.0832
      18    C7      20.403702   18.070312   21.800551 C.3        1 MOL1        -0.1685
      19    H12     21.469684   18.195205   21.566013 H          1 MOL1         0.0832
      20    H13     20.133002   17.069237   21.438115 H          1 MOL1         0.0832
      21    O1      20.533720   19.258371   25.410096 O.3        1 MOL1        -0.5509
      22    H14     19.661356   18.902715   25.677768 H          1 MOL1         0.3779
@<TRIPOS>BOND
    1     1     2    1
    2     1     3    1
    3     1     4    1
    4     4     5    1
    5     4     6    1
    6     4     7    1
    7     7     8    1
    8     7     9    1
    9     7    10    1
   10    10    11    1
   11    10    12    1
   12    10    13    1
   13    13    14    1
   14    13    15    1
   15    15    16    1
   16    15    17    1
   17     1    18    1
   18    15    18    1
   19    18    19    1
   20    18    20    1
   21    13    21    1
   22    21    22    1
@<TRIPOS>SUBSTRUCTURE
       1 MOL1            1 RESIDUE      1      MOL     
@<SCITEGIC>MOL_PROPERTY
VM2 Rank
SciTegic.value.IntegerValue
20

@<SCITEGIC>MOL_PROPERTY
Conf_Id
SciTegic.value.IntegerValue
1017

@<SCITEGIC>MOL_PROPERTY
Probability
SciTegic.value.DoubleValue
2.48

@<SCITEGIC>MOL_PROPERTY
Sum Probability
SciTegic.value.DoubleValue
66.57

@<SCITEGIC>MOL_PROPERTY
Delta G
SciTegic.value.DoubleValue
0.403

@<SCITEGIC>MOL_PROPERTY
G
SciTegic.value.DoubleValue
47.766

@<SCITEGIC>MOL_PROPERTY
E
SciTegic.value.DoubleValue
21.133

@<SCITEGIC>MOL_PROPERTY
-TS
SciTegic.value.DoubleValue
26.633

@<SCITEGIC>MOL_PROPERTY
U+W
SciTegic.value.DoubleValue
3.248

@<SCITEGIC>MOL_PROPERTY
U
SciTegic.value.DoubleValue
5.336

@<SCITEGIC>MOL_PROPERTY
W
SciTegic.value.DoubleValue
-2.088

@<SCITEGIC>MOL_PROPERTY
W(PB)
SciTegic.value.DoubleValue
-4.098

@<SCITEGIC>MOL_PROPERTY
W(SA)
SciTegic.value.DoubleValue
2.010

@<SCITEGIC>MOL_PROPERTY
Valence
SciTegic.value.DoubleValue
12.390

@<SCITEGIC>MOL_PROPERTY
Coulomb
SciTegic.value.DoubleValue
-9.270

@<SCITEGIC>MOL_PROPERTY
VdW
SciTegic.value.DoubleValue
2.216

@<SCITEGIC>MOL_PROPERTY
VdW6
SciTegic.value.DoubleValue
-8.967

@<SCITEGIC>MOL_PROPERTY
VdW12
SciTegic.value.DoubleValue
11.183

@<SCITEGIC>MOL_PROPERTY
Bond
SciTegic.value.DoubleValue
0.218

@<SCITEGIC>MOL_PROPERTY
Angle
SciTegic.value.DoubleValue
2.427

@<SCITEGIC>MOL_PROPERTY
Pdih
SciTegic.value.DoubleValue
9.745

@<SCITEGIC>MOL_PROPERTY
Idih
SciTegic.value.DoubleValue
0.000

@<SCITEGIC>MOL_PROPERTY
Tether
SciTegic.value.DoubleValue
0.000

@<TRIPOS>MOLECULE
guest-5_vm2.mol2 : vm2 ligand conformer 21
          22          22           1
SMALL
USER_CHARGES
 
@<TRIPOS>ATOM
       1    C1      19.687336   19.064692   21.036209 C.3        1 MOL1        -0.1685
       2    H1      19.915781   18.787176   19.998071 H          1 MOL1         0.0832
       3    H2      18.647373   18.751613   21.200852 H          1 MOL1         0.0832
       4    C2      19.787282   20.604133   21.151019 C.3        1 MOL1        -0.1685
       5    H3      20.622479   20.954711   20.529334 H          1 MOL1         0.0832
       6    H4      18.882445   21.038280   20.704097 H          1 MOL1         0.0832
       7    C3      19.971685   21.182539   22.574344 C.3        1 MOL1        -0.1685
       8    H5      19.666868   22.237573   22.546871 H          1 MOL1         0.0832
       9    H6      21.039132   21.202049   22.826069 H          1 MOL1         0.0832
      10    C4      19.165290   20.466228   23.689976 C.3        1 MOL1        -0.1761
      11    H7      19.000156   21.183296   24.504727 H          1 MOL1         0.0832
      12    H8      18.166302   20.201034   23.320485 H          1 MOL1         0.0832
      13    C5      19.845079   19.219724   24.309001 C.3        1 MOL1         0.1218
      14    H9      19.228078   18.900912   25.161359 H          1 MOL1         0.0789
      15    C6      19.975685   18.003395   23.366095 C.3        1 MOL1        -0.1761
      16    H10     20.563194   17.233007   23.883068 H          1 MOL1         0.0832
      17    H11     18.980740   17.563288   23.220114 H          1 MOL1         0.0832
      18    C7      20.619411   18.274301   21.982501 C.3        1 MOL1        -0.1685
      19    H12     20.827981   17.301328   21.517144 H          1 MOL1         0.0832
      20    H13     21.591462   18.774541   22.084578 H          1 MOL1         0.0832
      21    O1      21.134232   19.562989   24.797855 O.3        1 MOL1        -0.5509
      22    H14     21.658486   19.789248   24.004321 H          1 MOL1         0.3779
@<TRIPOS>BOND
    1     1     2    1
    2     1     3    1
    3     1     4    1
    4     4     5    1
    5     4     6    1
    6     4     7    1
    7     7     8    1
    8     7     9    1
    9     7    10    1
   10    10    11    1
   11    10    12    1
   12    10    13    1
   13    13    14    1
   14    13    15    1
   15    15    16    1
   16    15    17    1
   17     1    18    1
   18    15    18    1
   19    18    19    1
   20    18    20    1
   21    13    21    1
   22    21    22    1
@<TRIPOS>SUBSTRUCTURE
       1 MOL1            1 RESIDUE      1      MOL     
@<SCITEGIC>MOL_PROPERTY
VM2 Rank
SciTegic.value.IntegerValue
21

@<SCITEGIC>MOL_PROPERTY
Conf_Id
SciTegic.value.IntegerValue
2556

@<SCITEGIC>MOL_PROPERTY
Probability
SciTegic.value.DoubleValue
2.47

@<SCITEGIC>MOL_PROPERTY
Sum Probability
SciTegic.value.DoubleValue
69.03

@<SCITEGIC>MOL_PROPERTY
Delta G
SciTegic.value.DoubleValue
0.406

@<SCITEGIC>MOL_PROPERTY
G
SciTegic.value.DoubleValue
47.768

@<SCITEGIC>MOL_PROPERTY
E
SciTegic.value.DoubleValue
21.051

@<SCITEGIC>MOL_PROPERTY
-TS
SciTegic.value.DoubleValue
26.717

@<SCITEGIC>MOL_PROPERTY
U+W
SciTegic.value.DoubleValue
3.166

@<SCITEGIC>MOL_PROPERTY
U
SciTegic.value.DoubleValue
4.701

@<SCITEGIC>MOL_PROPERTY
W
SciTegic.value.DoubleValue
-1.534

@<SCITEGIC>MOL_PROPERTY
W(PB)
SciTegic.value.DoubleValue
-3.530

@<SCITEGIC>MOL_PROPERTY
W(SA)
SciTegic.value.DoubleValue
1.996

@<SCITEGIC>MOL_PROPERTY
Valence
SciTegic.value.DoubleValue
12.586

@<SCITEGIC>MOL_PROPERTY
Coulomb
SciTegic.value.DoubleValue
-9.999

@<SCITEGIC>MOL_PROPERTY
VdW
SciTegic.value.DoubleValue
2.114

@<SCITEGIC>MOL_PROPERTY
VdW6
SciTegic.value.DoubleValue
-9.790

@<SCITEGIC>MOL_PROPERTY
VdW12
SciTegic.value.DoubleValue
11.904

@<SCITEGIC>MOL_PROPERTY
Bond
SciTegic.value.DoubleValue
0.257

@<SCITEGIC>MOL_PROPERTY
Angle
SciTegic.value.DoubleValue
3.349

@<SCITEGIC>MOL_PROPERTY
Pdih
SciTegic.value.DoubleValue
8.981

@<SCITEGIC>MOL_PROPERTY
Idih
SciTegic.value.DoubleValue
0.000

@<SCITEGIC>MOL_PROPERTY
Tether
SciTegic.value.DoubleValue
0.000

@<TRIPOS>MOLECULE
guest-5_vm2.mol2 : vm2 ligand conformer 22
          22          22           1
SMALL
USER_CHARGES
 
@<TRIPOS>ATOM
       1    C1      20.167422   19.166291   20.860787 C.3        1 MOL1        -0.1685
       2    H1      21.258264   19.241817   20.755188 H          1 MOL1         0.0832
       3    H2      19.793207   18.844607   19.879347 H          1 MOL1         0.0832
       4    C2      19.584323   20.565340   21.164080 C.3        1 MOL1        -0.1685
       5    H3      19.939947   21.259670   20.390673 H          1 MOL1         0.0832
       6    H4      18.491223   20.535349   21.059533 H          1 MOL1         0.0832
       7    C3      19.953994   21.142057   22.551388 C.3        1 MOL1        -0.1685
       8    H5      19.664186   22.201474   22.562507 H          1 MOL1         0.0832
       9    H6      21.041337   21.121149   22.707488 H          1 MOL1         0.0832
      10    C4      19.219346   20.430096   23.713376 C.3        1 MOL1        -0.1761
      11    H7      19.077892   21.145793   24.533772 H          1 MOL1         0.0832
      12    H8      18.205800   20.159109   23.390802 H          1 MOL1         0.0832
      13    C5      19.922632   19.171713   24.275459 C.3        1 MOL1         0.1218
      14    H9      19.158776   18.583030   24.803845 H          1 MOL1         0.0789
      15    C6      20.595498   18.248964   23.232974 C.3        1 MOL1        -0.1761
      16    H10     21.611749   18.607330   23.021499 H          1 MOL1         0.0832
      17    H11     20.720552   17.263195   23.699188 H          1 MOL1         0.0832
      18    C7      19.825654   18.073259   21.901291 C.3        1 MOL1        -0.1685
      19    H12     20.108258   17.102794   21.471105 H          1 MOL1         0.0832
      20    H13     18.742524   18.024710   22.077386 H          1 MOL1         0.0832
      21    O1      20.917130   19.580280   25.207644 O.3        1 MOL1        -0.5509
      22    H14     20.467309   20.140765   25.873256 H          1 MOL1         0.3779
@<TRIPOS>BOND
    1     1     2    1
    2     1     3    1
    3     1     4    1
    4     4     5    1
    5     4     6    1
    6     4     7    1
    7     7     8    1
    8     7     9    1
    9     7    10    1
   10    10    11    1
   11    10    12    1
   12    10    13    1
   13    13    14    1
   14    13    15    1
   15    15    16    1
   16    15    17    1
   17     1    18    1
   18    15    18    1
   19    18    19    1
   20    18    20    1
   21    13    21    1
   22    21    22    1
@<TRIPOS>SUBSTRUCTURE
       1 MOL1            1 RESIDUE      1      MOL     
@<SCITEGIC>MOL_PROPERTY
VM2 Rank
SciTegic.value.IntegerValue
22

@<SCITEGIC>MOL_PROPERTY
Conf_Id
SciTegic.value.IntegerValue
1770

@<SCITEGIC>MOL_PROPERTY
Probability
SciTegic.value.DoubleValue
2.44

@<SCITEGIC>MOL_PROPERTY
Sum Probability
SciTegic.value.DoubleValue
71.48

@<SCITEGIC>MOL_PROPERTY
Delta G
SciTegic.value.DoubleValue
0.411

@<SCITEGIC>MOL_PROPERTY
G
SciTegic.value.DoubleValue
47.774

@<SCITEGIC>MOL_PROPERTY
E
SciTegic.value.DoubleValue
21.123

@<SCITEGIC>MOL_PROPERTY
-TS
SciTegic.value.DoubleValue
26.651

@<SCITEGIC>MOL_PROPERTY
U+W
SciTegic.value.DoubleValue
3.238

@<SCITEGIC>MOL_PROPERTY
U
SciTegic.value.DoubleValue
5.651

@<SCITEGIC>MOL_PROPERTY
W
SciTegic.value.DoubleValue
-2.413

@<SCITEGIC>MOL_PROPERTY
W(PB)
SciTegic.value.DoubleValue
-4.418

@<SCITEGIC>MOL_PROPERTY
W(SA)
SciTegic.value.DoubleValue
2.005

@<SCITEGIC>MOL_PROPERTY
Valence
SciTegic.value.DoubleValue
11.811

@<SCITEGIC>MOL_PROPERTY
Coulomb
SciTegic.value.DoubleValue
-8.308

@<SCITEGIC>MOL_PROPERTY
VdW
SciTegic.value.DoubleValue
2.148

@<SCITEGIC>MOL_PROPERTY
VdW6
SciTegic.value.DoubleValue
-9.144

@<SCITEGIC>MOL_PROPERTY
VdW12
SciTegic.value.DoubleValue
11.292

@<SCITEGIC>MOL_PROPERTY
Bond
SciTegic.value.DoubleValue
0.225

@<SCITEGIC>MOL_PROPERTY
Angle
SciTegic.value.DoubleValue
2.646

@<SCITEGIC>MOL_PROPERTY
Pdih
SciTegic.value.DoubleValue
8.941

@<SCITEGIC>MOL_PROPERTY
Idih
SciTegic.value.DoubleValue
0.000

@<SCITEGIC>MOL_PROPERTY
Tether
SciTegic.value.DoubleValue
0.000

@<TRIPOS>MOLECULE
guest-5_vm2.mol2 : vm2 ligand conformer 23
          22          22           1
SMALL
USER_CHARGES
 
@<TRIPOS>ATOM
       1    C1      19.692028   18.984092   20.945576 C.3        1 MOL1        -0.1685
       2    H1      20.403429   18.752631   20.141033 H          1 MOL1         0.0832
       3    H2      18.699709   18.737229   20.543940 H          1 MOL1         0.0832
       4    C2      19.758230   20.504862   21.221123 C.3        1 MOL1        -0.1685
       5    H3      20.797755   20.848563   21.132200 H          1 MOL1         0.0832
       6    H4      19.210477   21.018306   20.419080 H          1 MOL1         0.0832
       7    C3      19.183093   20.950217   22.584878 C.3        1 MOL1        -0.1685
       8    H5      18.292376   20.363730   22.846026 H          1 MOL1         0.0832
       9    H6      18.841640   21.989532   22.485023 H          1 MOL1         0.0832
      10    C4      20.237911   20.910721   23.719735 C.3        1 MOL1        -0.1761
      11    H7      21.135928   21.452259   23.395357 H          1 MOL1         0.0832
      12    H8      19.851395   21.474005   24.579526 H          1 MOL1         0.0832
      13    C5      20.657250   19.508944   24.214462 C.3        1 MOL1         0.1218
      14    H9      21.516645   19.648783   24.885827 H          1 MOL1         0.0789
      15    C6      21.095933   18.520339   23.105729 C.3        1 MOL1        -0.1761
      16    H10     21.925172   18.950634   22.529503 H          1 MOL1         0.0832
      17    H11     21.509643   17.635108   23.606217 H          1 MOL1         0.0832
      18    C7      19.970575   18.049218   22.146758 C.3        1 MOL1        -0.1685
      19    H12     19.040092   17.880088   22.702440 H          1 MOL1         0.0832
      20    H13     20.244799   17.064175   21.745189 H          1 MOL1         0.0832
      21    O1      19.590979   18.949608   24.968740 O.3        1 MOL1        -0.5509
      22    H14     18.838813   18.891412   24.346978 H          1 MOL1         0.3779
@<TRIPOS>BOND
    1     1     2    1
    2     1     3    1
    3     1     4    1
    4     4     5    1
    5     4     6    1
    6     4     7    1
    7     7     8    1
    8     7     9    1
    9     7    10    1
   10    10    11    1
   11    10    12    1
   12    10    13    1
   13    13    14    1
   14    13    15    1
   15    15    16    1
   16    15    17    1
   17     1    18    1
   18    15    18    1
   19    18    19    1
   20    18    20    1
   21    13    21    1
   22    21    22    1
@<TRIPOS>SUBSTRUCTURE
       1 MOL1            1 RESIDUE      1      MOL     
@<SCITEGIC>MOL_PROPERTY
VM2 Rank
SciTegic.value.IntegerValue
23

@<SCITEGIC>MOL_PROPERTY
Conf_Id
SciTegic.value.IntegerValue
2551

@<SCITEGIC>MOL_PROPERTY
Probability
SciTegic.value.DoubleValue
2.41

@<SCITEGIC>MOL_PROPERTY
Sum Probability
SciTegic.value.DoubleValue
73.88

@<SCITEGIC>MOL_PROPERTY
Delta G
SciTegic.value.DoubleValue
0.420

@<SCITEGIC>MOL_PROPERTY
G
SciTegic.value.DoubleValue
47.783

@<SCITEGIC>MOL_PROPERTY
E
SciTegic.value.DoubleValue
21.066

@<SCITEGIC>MOL_PROPERTY
-TS
SciTegic.value.DoubleValue
26.717

@<SCITEGIC>MOL_PROPERTY
U+W
SciTegic.value.DoubleValue
3.181

@<SCITEGIC>MOL_PROPERTY
U
SciTegic.value.DoubleValue
4.701

@<SCITEGIC>MOL_PROPERTY
W
SciTegic.value.DoubleValue
-1.520

@<SCITEGIC>MOL_PROPERTY
W(PB)
SciTegic.value.DoubleValue
-3.523

@<SCITEGIC>MOL_PROPERTY
W(SA)
SciTegic.value.DoubleValue
2.003

@<SCITEGIC>MOL_PROPERTY
Valence
SciTegic.value.DoubleValue
12.586

@<SCITEGIC>MOL_PROPERTY
Coulomb
SciTegic.value.DoubleValue
-9.999

@<SCITEGIC>MOL_PROPERTY
VdW
SciTegic.value.DoubleValue
2.114

@<SCITEGIC>MOL_PROPERTY
VdW6
SciTegic.value.DoubleValue
-9.790

@<SCITEGIC>MOL_PROPERTY
VdW12
SciTegic.value.DoubleValue
11.904

@<SCITEGIC>MOL_PROPERTY
Bond
SciTegic.value.DoubleValue
0.257

@<SCITEGIC>MOL_PROPERTY
Angle
SciTegic.value.DoubleValue
3.349

@<SCITEGIC>MOL_PROPERTY
Pdih
SciTegic.value.DoubleValue
8.980

@<SCITEGIC>MOL_PROPERTY
Idih
SciTegic.value.DoubleValue
0.000

@<SCITEGIC>MOL_PROPERTY
Tether
SciTegic.value.DoubleValue
0.000

@<TRIPOS>MOLECULE
guest-5_vm2.mol2 : vm2 ligand conformer 24
          22          22           1
SMALL
USER_CHARGES
 
@<TRIPOS>ATOM
       1    C1      19.669036   19.024011   20.919951 C.3        1 MOL1        -0.1685
       2    H1      19.932988   18.884510   19.862780 H          1 MOL1         0.0832
       3    H2      18.706303   18.513263   21.058051 H          1 MOL1         0.0832
       4    C2      19.486958   20.537548   21.175641 C.3        1 MOL1        -0.1685
       5    H3      20.382312   21.075232   20.835149 H          1 MOL1         0.0832
       6    H4      18.664005   20.895408   20.542075 H          1 MOL1         0.0832
       7    C3      19.181729   20.921589   22.643028 C.3        1 MOL1        -0.1685
       8    H5      18.328811   20.346772   23.029339 H          1 MOL1         0.0832
       9    H6      18.871269   21.975110   22.656606 H          1 MOL1         0.0832
      10    C4      20.410926   20.770245   23.571995 C.3        1 MOL1        -0.1761
      11    H7      21.318996   21.047784   23.021406 H          1 MOL1         0.0832
      12    H8      20.332451   21.503933   24.384905 H          1 MOL1         0.0832
      13    C5      20.607831   19.367328   24.194188 C.3        1 MOL1         0.1218
      14    H9      21.659611   19.297004   24.507283 H          1 MOL1         0.0789
      15    C6      20.307605   18.166723   23.267145 C.3        1 MOL1        -0.1761
      16    H10     19.236128   17.928941   23.303377 H          1 MOL1         0.0832
      17    H11     20.819194   17.291326   23.687492 H          1 MOL1         0.0832
      18    C7      20.746230   18.336091   21.792072 C.3        1 MOL1        -0.1685
      19    H12     21.703789   18.870186   21.726036 H          1 MOL1         0.0832
      20    H13     20.925567   17.336151   21.374117 H          1 MOL1         0.0832
      21    O1      19.775686   19.254464   25.342979 O.3        1 MOL1        -0.5509
      22    H14     19.999063   20.007105   25.928774 H          1 MOL1         0.3779
@<TRIPOS>BOND
    1     1     2    1
    2     1     3    1
    3     1     4    1
    4     4     5    1
    5     4     6    1
    6     4     7    1
    7     7     8    1
    8     7     9    1
    9     7    10    1
   10    10    11    1
   11    10    12    1
   12    10    13    1
   13    13    14    1
   14    13    15    1
   15    15    16    1
   16    15    17    1
   17     1    18    1
   18    15    18    1
   19    18    19    1
   20    18    20    1
   21    13    21    1
   22    21    22    1
@<TRIPOS>SUBSTRUCTURE
       1 MOL1            1 RESIDUE      1      MOL     
@<SCITEGIC>MOL_PROPERTY
VM2 Rank
SciTegic.value.IntegerValue
24

@<SCITEGIC>MOL_PROPERTY
Conf_Id
SciTegic.value.IntegerValue
1200

@<SCITEGIC>MOL_PROPERTY
Probability
SciTegic.value.DoubleValue
2.39

@<SCITEGIC>MOL_PROPERTY
Sum Probability
SciTegic.value.DoubleValue
76.27

@<SCITEGIC>MOL_PROPERTY
Delta G
SciTegic.value.DoubleValue
0.426

@<SCITEGIC>MOL_PROPERTY
G
SciTegic.value.DoubleValue
47.788

@<SCITEGIC>MOL_PROPERTY
E
SciTegic.value.DoubleValue
21.137

@<SCITEGIC>MOL_PROPERTY
-TS
SciTegic.value.DoubleValue
26.651

@<SCITEGIC>MOL_PROPERTY
U+W
SciTegic.value.DoubleValue
3.252

@<SCITEGIC>MOL_PROPERTY
U
SciTegic.value.DoubleValue
5.651

@<SCITEGIC>MOL_PROPERTY
W
SciTegic.value.DoubleValue
-2.399

@<SCITEGIC>MOL_PROPERTY
W(PB)
SciTegic.value.DoubleValue
-4.407

@<SCITEGIC>MOL_PROPERTY
W(SA)
SciTegic.value.DoubleValue
2.008

@<SCITEGIC>MOL_PROPERTY
Valence
SciTegic.value.DoubleValue
11.811

@<SCITEGIC>MOL_PROPERTY
Coulomb
SciTegic.value.DoubleValue
-8.308

@<SCITEGIC>MOL_PROPERTY
VdW
SciTegic.value.DoubleValue
2.148

@<SCITEGIC>MOL_PROPERTY
VdW6
SciTegic.value.DoubleValue
-9.144

@<SCITEGIC>MOL_PROPERTY
VdW12
SciTegic.value.DoubleValue
11.292

@<SCITEGIC>MOL_PROPERTY
Bond
SciTegic.value.DoubleValue
0.225

@<SCITEGIC>MOL_PROPERTY
Angle
SciTegic.value.DoubleValue
2.645

@<SCITEGIC>MOL_PROPERTY
Pdih
SciTegic.value.DoubleValue
8.941

@<SCITEGIC>MOL_PROPERTY
Idih
SciTegic.value.DoubleValue
0.000

@<SCITEGIC>MOL_PROPERTY
Tether
SciTegic.value.DoubleValue
0.000

@<TRIPOS>MOLECULE
guest-5_vm2.mol2 : vm2 ligand conformer 25
          22          22           1
SMALL
USER_CHARGES
 
@<TRIPOS>ATOM
       1    C1      19.880439   19.048616   20.901808 C.3        1 MOL1        -0.1685
       2    H1      20.890073   19.153851   20.481969 H          1 MOL1         0.0832
       3    H2      19.277154   18.575204   20.115264 H          1 MOL1         0.0832
       4    C2      19.292554   20.450446   21.182139 C.3        1 MOL1        -0.1685
       5    H3      19.363488   21.042425   20.259495 H          1 MOL1         0.0832
       6    H4      18.219175   20.358532   21.397083 H          1 MOL1         0.0832
       7    C3      19.980912   21.234160   22.324999 C.3        1 MOL1        -0.1685
       8    H5      19.622186   22.271545   22.281661 H          1 MOL1         0.0832
       9    H6      21.067272   21.280650   22.169451 H          1 MOL1         0.0832
      10    C4      19.646312   20.670172   23.727451 C.3        1 MOL1        -0.1761
      11    H7      19.711112   21.486030   24.458827 H          1 MOL1         0.0832
      12    H8      18.599664   20.338376   23.746256 H          1 MOL1         0.0832
      13    C5      20.564806   19.529684   24.224085 C.3        1 MOL1         0.1218
      14    H9      21.477520   19.985904   24.634001 H          1 MOL1         0.0789
      15    C6      21.009542   18.503110   23.155238 C.3        1 MOL1        -0.1761
      16    H10     21.887331   18.895670   22.625948 H          1 MOL1         0.0832
      17    H11     21.363520   17.598625   23.666986 H          1 MOL1         0.0832
      18    C7      19.926528   18.101513   22.124407 C.3        1 MOL1        -0.1685
      19    H12     20.160766   17.092603   21.758741 H          1 MOL1         0.0832
      20    H13     18.940226   18.031499   22.603391 H          1 MOL1         0.0832
      21    O1      19.884907   18.840299   25.266874 O.3        1 MOL1        -0.5509
      22    H14     20.491844   18.140646   25.585678 H          1 MOL1         0.3779
@<TRIPOS>BOND
    1     1     2    1
    2     1     3    1
    3     1     4    1
    4     4     5    1
    5     4     6    1
    6     4     7    1
    7     7     8    1
    8     7     9    1
    9     7    10    1
   10    10    11    1
   11    10    12    1
   12    10    13    1
   13    13    14    1
   14    13    15    1
   15    15    16    1
   16    15    17    1
   17     1    18    1
   18    15    18    1
   19    18    19    1
   20    18    20    1
   21    13    21    1
   22    21    22    1
@<TRIPOS>SUBSTRUCTURE
       1 MOL1            1 RESIDUE      1      MOL     
@<SCITEGIC>MOL_PROPERTY
VM2 Rank
SciTegic.value.IntegerValue
25

@<SCITEGIC>MOL_PROPERTY
Conf_Id
SciTegic.value.IntegerValue
584

@<SCITEGIC>MOL_PROPERTY
Probability
SciTegic.value.DoubleValue
2.26

@<SCITEGIC>MOL_PROPERTY
Sum Probability
SciTegic.value.DoubleValue
78.53

@<SCITEGIC>MOL_PROPERTY
Delta G
SciTegic.value.DoubleValue
0.458

@<SCITEGIC>MOL_PROPERTY
G
SciTegic.value.DoubleValue
47.820

@<SCITEGIC>MOL_PROPERTY
E
SciTegic.value.DoubleValue
21.169

@<SCITEGIC>MOL_PROPERTY
-TS
SciTegic.value.DoubleValue
26.651

@<SCITEGIC>MOL_PROPERTY
U+W
SciTegic.value.DoubleValue
3.284

@<SCITEGIC>MOL_PROPERTY
U
SciTegic.value.DoubleValue
5.651

@<SCITEGIC>MOL_PROPERTY
W
SciTegic.value.DoubleValue
-2.367

@<SCITEGIC>MOL_PROPERTY
W(PB)
SciTegic.value.DoubleValue
-4.373

@<SCITEGIC>MOL_PROPERTY
W(SA)
SciTegic.value.DoubleValue
2.007

@<SCITEGIC>MOL_PROPERTY
Valence
SciTegic.value.DoubleValue
11.812

@<SCITEGIC>MOL_PROPERTY
Coulomb
SciTegic.value.DoubleValue
-8.308

@<SCITEGIC>MOL_PROPERTY
VdW
SciTegic.value.DoubleValue
2.147

@<SCITEGIC>MOL_PROPERTY
VdW6
SciTegic.value.DoubleValue
-9.144

@<SCITEGIC>MOL_PROPERTY
VdW12
SciTegic.value.DoubleValue
11.291

@<SCITEGIC>MOL_PROPERTY
Bond
SciTegic.value.DoubleValue
0.225

@<SCITEGIC>MOL_PROPERTY
Angle
SciTegic.value.DoubleValue
2.646

@<SCITEGIC>MOL_PROPERTY
Pdih
SciTegic.value.DoubleValue
8.941

@<SCITEGIC>MOL_PROPERTY
Idih
SciTegic.value.DoubleValue
0.000

@<SCITEGIC>MOL_PROPERTY
Tether
SciTegic.value.DoubleValue
0.000

@<TRIPOS>MOLECULE
guest-5_vm2.mol2 : vm2 ligand conformer 26
          22          22           1
SMALL
USER_CHARGES
 
@<TRIPOS>ATOM
       1    C1      19.886475   19.051844   20.899514 C.3        1 MOL1        -0.1685
       2    H1      20.899442   19.157234   20.487840 H          1 MOL1         0.0832
       3    H2      19.289006   18.580291   20.107438 H          1 MOL1         0.0832
       4    C2      19.297080   20.453275   21.177958 C.3        1 MOL1        -0.1685
       5    H3      19.374709   21.046895   20.256904 H          1 MOL1         0.0832
       6    H4      18.222194   20.361458   21.385277 H          1 MOL1         0.0832
       7    C3      19.978206   21.234151   22.326832 C.3        1 MOL1        -0.1685
       8    H5      19.618251   22.271198   22.284878 H          1 MOL1         0.0832
       9    H6      21.065285   21.282471   22.176565 H          1 MOL1         0.0832
      10    C4      19.638119   20.664741   23.725540 C.3        1 MOL1        -0.1761
      11    H7      19.692755   21.481985   24.456338 H          1 MOL1         0.0832
      12    H8      18.593769   20.324946   23.734751 H          1 MOL1         0.0832
      13    C5      20.564153   19.530223   24.222154 C.3        1 MOL1         0.1218
      14    H9      21.480502   19.989826   24.619995 H          1 MOL1         0.0789
      15    C6      21.002199   18.496079   23.158125 C.3        1 MOL1        -0.1761
      16    H10     21.890044   18.873632   22.635092 H          1 MOL1         0.0832
      17    H11     21.337226   17.590429   23.681111 H          1 MOL1         0.0832
      18    C7      19.922379   18.102420   22.120649 C.3        1 MOL1        -0.1685
      19    H12     20.154218   17.093175   21.754503 H          1 MOL1         0.0832
      20    H13     18.933871   18.035054   22.595278 H          1 MOL1         0.0832
      21    O1      19.897391   18.845266   25.276228 O.3        1 MOL1        -0.5509
      22    H14     19.673800   19.517966   25.952613 H          1 MOL1         0.3779
@<TRIPOS>BOND
    1     1     2    1
    2     1     3    1
    3     1     4    1
    4     4     5    1
    5     4     6    1
    6     4     7    1
    7     7     8    1
    8     7     9    1
    9     7    10    1
   10    10    11    1
   11    10    12    1
   12    10    13    1
   13    13    14    1
   14    13    15    1
   15    15    16    1
   16    15    17    1
   17     1    18    1
   18    15    18    1
   19    18    19    1
   20    18    20    1
   21    13    21    1
   22    21    22    1
@<TRIPOS>SUBSTRUCTURE
       1 MOL1            1 RESIDUE      1      MOL     
@<SCITEGIC>MOL_PROPERTY
VM2 Rank
SciTegic.value.IntegerValue
26

@<SCITEGIC>MOL_PROPERTY
Conf_Id
SciTegic.value.IntegerValue
1919

@<SCITEGIC>MOL_PROPERTY
Probability
SciTegic.value.DoubleValue
2.19

@<SCITEGIC>MOL_PROPERTY
Sum Probability
SciTegic.value.DoubleValue
80.72

@<SCITEGIC>MOL_PROPERTY
Delta G
SciTegic.value.DoubleValue
0.476

@<SCITEGIC>MOL_PROPERTY
G
SciTegic.value.DoubleValue
47.838

@<SCITEGIC>MOL_PROPERTY
E
SciTegic.value.DoubleValue
21.157

@<SCITEGIC>MOL_PROPERTY
-TS
SciTegic.value.DoubleValue
26.682

@<SCITEGIC>MOL_PROPERTY
U+W
SciTegic.value.DoubleValue
3.272

@<SCITEGIC>MOL_PROPERTY
U
SciTegic.value.DoubleValue
5.678

@<SCITEGIC>MOL_PROPERTY
W
SciTegic.value.DoubleValue
-2.407

@<SCITEGIC>MOL_PROPERTY
W(PB)
SciTegic.value.DoubleValue
-4.420

@<SCITEGIC>MOL_PROPERTY
W(SA)
SciTegic.value.DoubleValue
2.013

@<SCITEGIC>MOL_PROPERTY
Valence
SciTegic.value.DoubleValue
11.807

@<SCITEGIC>MOL_PROPERTY
Coulomb
SciTegic.value.DoubleValue
-8.278

@<SCITEGIC>MOL_PROPERTY
VdW
SciTegic.value.DoubleValue
2.149

@<SCITEGIC>MOL_PROPERTY
VdW6
SciTegic.value.DoubleValue
-9.114

@<SCITEGIC>MOL_PROPERTY
VdW12
SciTegic.value.DoubleValue
11.263

@<SCITEGIC>MOL_PROPERTY
Bond
SciTegic.value.DoubleValue
0.224

@<SCITEGIC>MOL_PROPERTY
Angle
SciTegic.value.DoubleValue
2.649

@<SCITEGIC>MOL_PROPERTY
Pdih
SciTegic.value.DoubleValue
8.934

@<SCITEGIC>MOL_PROPERTY
Idih
SciTegic.value.DoubleValue
0.000

@<SCITEGIC>MOL_PROPERTY
Tether
SciTegic.value.DoubleValue
0.000

@<TRIPOS>MOLECULE
guest-5_vm2.mol2 : vm2 ligand conformer 27
          22          22           1
SMALL
USER_CHARGES
 
@<TRIPOS>ATOM
       1    C1      19.674249   19.026016   20.915208 C.3        1 MOL1        -0.1685
       2    H1      19.945308   18.887824   19.859660 H          1 MOL1         0.0832
       3    H2      18.709012   18.517935   21.045447 H          1 MOL1         0.0832
       4    C2      19.495225   20.539442   21.172923 C.3        1 MOL1        -0.1685
       5    H3      20.394948   21.075066   20.840824 H          1 MOL1         0.0832
       6    H4      18.678375   20.901356   20.533791 H          1 MOL1         0.0832
       7    C3      19.179617   20.920978   22.638763 C.3        1 MOL1        -0.1685
       8    H5      18.324944   20.345150   23.019437 H          1 MOL1         0.0832
       9    H6      18.867867   21.974082   22.651882 H          1 MOL1         0.0832
      10    C4      20.402279   20.770975   23.576812 C.3        1 MOL1        -0.1761
      11    H7      21.313000   21.062710   23.038428 H          1 MOL1         0.0832
      12    H8      20.308007   21.492699   24.399119 H          1 MOL1         0.0832
      13    C5      20.606667   19.366385   24.192315 C.3        1 MOL1         0.1218
      14    H9      21.662020   19.297975   24.493580 H          1 MOL1         0.0789
      15    C6      20.296103   18.167514   23.266272 C.3        1 MOL1        -0.1761
      16    H10     20.798332   17.285710   23.684754 H          1 MOL1         0.0832
      17    H11     19.221712   17.941645   23.295894 H          1 MOL1         0.0832
      18    C7      20.743219   18.333673   21.793603 C.3        1 MOL1        -0.1685
      19    H12     20.920584   17.332854   21.376835 H          1 MOL1         0.0832
      20    H13     21.703318   18.863890   21.732474 H          1 MOL1         0.0832
      21    O1      19.788642   19.253016   25.351104 O.3        1 MOL1        -0.5509
      22    H14     19.973784   18.373885   25.742083 H          1 MOL1         0.3779
@<TRIPOS>BOND
    1     1     2    1
    2     1     3    1
    3     1     4    1
    4     4     5    1
    5     4     6    1
    6     4     7    1
    7     7     8    1
    8     7     9    1
    9     7    10    1
   10    10    11    1
   11    10    12    1
   12    10    13    1
   13    13    14    1
   14    13    15    1
   15    15    16    1
   16    15    17    1
   17     1    18    1
   18    15    18    1
   19    18    19    1
   20    18    20    1
   21    13    21    1
   22    21    22    1
@<TRIPOS>SUBSTRUCTURE
       1 MOL1            1 RESIDUE      1      MOL     
@<SCITEGIC>MOL_PROPERTY
VM2 Rank
SciTegic.value.IntegerValue
27

@<SCITEGIC>MOL_PROPERTY
Conf_Id
SciTegic.value.IntegerValue
1514

@<SCITEGIC>MOL_PROPERTY
Probability
SciTegic.value.DoubleValue
2.17

@<SCITEGIC>MOL_PROPERTY
Sum Probability
SciTegic.value.DoubleValue
82.90

@<SCITEGIC>MOL_PROPERTY
Delta G
SciTegic.value.DoubleValue
0.481

@<SCITEGIC>MOL_PROPERTY
G
SciTegic.value.DoubleValue
47.844

@<SCITEGIC>MOL_PROPERTY
E
SciTegic.value.DoubleValue
21.162

@<SCITEGIC>MOL_PROPERTY
-TS
SciTegic.value.DoubleValue
26.682

@<SCITEGIC>MOL_PROPERTY
U+W
SciTegic.value.DoubleValue
3.277

@<SCITEGIC>MOL_PROPERTY
U
SciTegic.value.DoubleValue
5.678

@<SCITEGIC>MOL_PROPERTY
W
SciTegic.value.DoubleValue
-2.401

@<SCITEGIC>MOL_PROPERTY
W(PB)
SciTegic.value.DoubleValue
-4.416

@<SCITEGIC>MOL_PROPERTY
W(SA)
SciTegic.value.DoubleValue
2.015

@<SCITEGIC>MOL_PROPERTY
Valence
SciTegic.value.DoubleValue
11.807

@<SCITEGIC>MOL_PROPERTY
Coulomb
SciTegic.value.DoubleValue
-8.278

@<SCITEGIC>MOL_PROPERTY
VdW
SciTegic.value.DoubleValue
2.149

@<SCITEGIC>MOL_PROPERTY
VdW6
SciTegic.value.DoubleValue
-9.114

@<SCITEGIC>MOL_PROPERTY
VdW12
SciTegic.value.DoubleValue
11.263

@<SCITEGIC>MOL_PROPERTY
Bond
SciTegic.value.DoubleValue
0.224

@<SCITEGIC>MOL_PROPERTY
Angle
SciTegic.value.DoubleValue
2.649

@<SCITEGIC>MOL_PROPERTY
Pdih
SciTegic.value.DoubleValue
8.934

@<SCITEGIC>MOL_PROPERTY
Idih
SciTegic.value.DoubleValue
0.000

@<SCITEGIC>MOL_PROPERTY
Tether
SciTegic.value.DoubleValue
0.000

@<TRIPOS>MOLECULE
guest-5_vm2.mol2 : vm2 ligand conformer 28
          22          22           1
SMALL
USER_CHARGES
 
@<TRIPOS>ATOM
       1    C1      19.880128   19.081777   20.794041 C.3        1 MOL1        -0.1685
       2    H1      20.541914   19.359755   19.962361 H          1 MOL1         0.0832
       3    H2      19.125538   18.410394   20.361878 H          1 MOL1         0.0832
       4    C2      19.156669   20.350189   21.307227 C.3        1 MOL1        -0.1685
       5    H3      18.903796   20.971275   20.437050 H          1 MOL1         0.0832
       6    H4      18.194428   20.068177   21.755915 H          1 MOL1         0.0832
       7    C3      19.963261   21.202662   22.313710 C.3        1 MOL1        -0.1685
       8    H5      19.607107   22.239477   22.243223 H          1 MOL1         0.0832
       9    H6      21.027149   21.226520   22.041131 H          1 MOL1         0.0832
      10    C4      19.777322   20.738855   23.779797 C.3        1 MOL1        -0.1761
      11    H7      20.169251   21.523166   24.440287 H          1 MOL1         0.0832
      12    H8      18.704940   20.661435   24.003397 H          1 MOL1         0.0832
      13    C5      20.473096   19.410102   24.146146 C.3        1 MOL1         0.1218
      14    H9      21.560791   19.557871   24.082706 H          1 MOL1         0.0789
      15    C6      20.093688   18.212186   23.247073 C.3        1 MOL1        -0.1761
      16    H10     20.468820   17.299651   23.728998 H          1 MOL1         0.0832
      17    H11     19.003127   18.102546   23.188298 H          1 MOL1         0.0832
      18    C7      20.716130   18.295766   21.832655 C.3        1 MOL1        -0.1685
      19    H12     21.721374   18.733347   21.901885 H          1 MOL1         0.0832
      20    H13     20.864741   17.277538   21.447987 H          1 MOL1         0.0832
      21    O1      20.125707   19.086464   25.486351 O.3        1 MOL1        -0.5509
      22    H14     20.418856   19.837446   26.043716 H          1 MOL1         0.3779
@<TRIPOS>BOND
    1     1     2    1
    2     1     3    1
    3     1     4    1
    4     4     5    1
    5     4     6    1
    6     4     7    1
    7     7     8    1
    8     7     9    1
    9     7    10    1
   10    10    11    1
   11    10    12    1
   12    10    13    1
   13    13    14    1
   14    13    15    1
   15    15    16    1
   16    15    17    1
   17     1    18    1
   18    15    18    1
   19    18    19    1
   20    18    20    1
   21    13    21    1
   22    21    22    1
@<TRIPOS>SUBSTRUCTURE
       1 MOL1            1 RESIDUE      1      MOL     
@<SCITEGIC>MOL_PROPERTY
VM2 Rank
SciTegic.value.IntegerValue
28

@<SCITEGIC>MOL_PROPERTY
Conf_Id
SciTegic.value.IntegerValue
1696

@<SCITEGIC>MOL_PROPERTY
Probability
SciTegic.value.DoubleValue
1.79

@<SCITEGIC>MOL_PROPERTY
Sum Probability
SciTegic.value.DoubleValue
84.69

@<SCITEGIC>MOL_PROPERTY
Delta G
SciTegic.value.DoubleValue
0.595

@<SCITEGIC>MOL_PROPERTY
G
SciTegic.value.DoubleValue
47.958

@<SCITEGIC>MOL_PROPERTY
E
SciTegic.value.DoubleValue
21.387

@<SCITEGIC>MOL_PROPERTY
-TS
SciTegic.value.DoubleValue
26.571

@<SCITEGIC>MOL_PROPERTY
U+W
SciTegic.value.DoubleValue
3.502

@<SCITEGIC>MOL_PROPERTY
U
SciTegic.value.DoubleValue
5.864

@<SCITEGIC>MOL_PROPERTY
W
SciTegic.value.DoubleValue
-2.362

@<SCITEGIC>MOL_PROPERTY
W(PB)
SciTegic.value.DoubleValue
-4.366

@<SCITEGIC>MOL_PROPERTY
W(SA)
SciTegic.value.DoubleValue
2.004

@<SCITEGIC>MOL_PROPERTY
Valence
SciTegic.value.DoubleValue
12.329

@<SCITEGIC>MOL_PROPERTY
Coulomb
SciTegic.value.DoubleValue
-8.532

@<SCITEGIC>MOL_PROPERTY
VdW
SciTegic.value.DoubleValue
2.068

@<SCITEGIC>MOL_PROPERTY
VdW6
SciTegic.value.DoubleValue
-8.866

@<SCITEGIC>MOL_PROPERTY
VdW12
SciTegic.value.DoubleValue
10.934

@<SCITEGIC>MOL_PROPERTY
Bond
SciTegic.value.DoubleValue
0.215

@<SCITEGIC>MOL_PROPERTY
Angle
SciTegic.value.DoubleValue
2.565

@<SCITEGIC>MOL_PROPERTY
Pdih
SciTegic.value.DoubleValue
9.548

@<SCITEGIC>MOL_PROPERTY
Idih
SciTegic.value.DoubleValue
0.000

@<SCITEGIC>MOL_PROPERTY
Tether
SciTegic.value.DoubleValue
0.000

@<TRIPOS>MOLECULE
guest-5_vm2.mol2 : vm2 ligand conformer 29
          22          22           1
SMALL
USER_CHARGES
 
@<TRIPOS>ATOM
       1    C1      19.979942   19.107153   20.784019 C.3        1 MOL1        -0.1685
       2    H1      20.866504   18.853123   20.187025 H          1 MOL1         0.0832
       3    H2      19.123231   18.998948   20.104856 H          1 MOL1         0.0832
       4    C2      20.098405   20.589681   21.212625 C.3        1 MOL1        -0.1685
       5    H3      21.144103   20.818311   21.459611 H          1 MOL1         0.0832
       6    H4      19.859515   21.214320   20.341040 H          1 MOL1         0.0832
       7    C3      19.188754   21.005703   22.391511 C.3        1 MOL1        -0.1685
       8    H5      18.210634   20.510265   22.324057 H          1 MOL1         0.0832
       9    H6      18.991526   22.082933   22.305057 H          1 MOL1         0.0832
      10    C4      19.842372   20.755398   23.773261 C.3        1 MOL1        -0.1761
      11    H7      20.844004   21.205392   23.788513 H          1 MOL1         0.0832
      12    H8      19.257287   21.291259   24.531897 H          1 MOL1         0.0832
      13    C5      19.940664   19.274706   24.199624 C.3        1 MOL1         0.1218
      14    H9      18.922498   18.886953   24.347698 H          1 MOL1         0.0789
      15    C6      20.666131   18.357771   23.189572 C.3        1 MOL1        -0.1761
      16    H10     21.645862   18.774638   22.922835 H          1 MOL1         0.0832
      17    H11     20.865130   17.400444   23.689192 H          1 MOL1         0.0832
      18    C7      19.826344   18.069489   21.922038 C.3        1 MOL1        -0.1685
      19    H12     20.108361   17.085182   21.523981 H          1 MOL1         0.0832
      20    H13     18.766814   17.981991   22.198673 H          1 MOL1         0.0832
      21    O1      20.643388   19.218100   25.434349 O.3        1 MOL1        -0.5509
      22    H14     20.139862   19.766525   26.071730 H          1 MOL1         0.3779
@<TRIPOS>BOND
    1     1     2    1
    2     1     3    1
    3     1     4    1
    4     4     5    1
    5     4     6    1
    6     4     7    1
    7     7     8    1
    8     7     9    1
    9     7    10    1
   10    10    11    1
   11    10    12    1
   12    10    13    1
   13    13    14    1
   14    13    15    1
   15    15    16    1
   16    15    17    1
   17     1    18    1
   18    15    18    1
   19    18    19    1
   20    18    20    1
   21    13    21    1
   22    21    22    1
@<TRIPOS>SUBSTRUCTURE
       1 MOL1            1 RESIDUE      1      MOL     
@<SCITEGIC>MOL_PROPERTY
VM2 Rank
SciTegic.value.IntegerValue
29

@<SCITEGIC>MOL_PROPERTY
Conf_Id
SciTegic.value.IntegerValue
1363

@<SCITEGIC>MOL_PROPERTY
Probability
SciTegic.value.DoubleValue
1.75

@<SCITEGIC>MOL_PROPERTY
Sum Probability
SciTegic.value.DoubleValue
86.44

@<SCITEGIC>MOL_PROPERTY
Delta G
SciTegic.value.DoubleValue
0.611

@<SCITEGIC>MOL_PROPERTY
G
SciTegic.value.DoubleValue
47.973

@<SCITEGIC>MOL_PROPERTY
E
SciTegic.value.DoubleValue
21.402

@<SCITEGIC>MOL_PROPERTY
-TS
SciTegic.value.DoubleValue
26.571

@<SCITEGIC>MOL_PROPERTY
U+W
SciTegic.value.DoubleValue
3.518

@<SCITEGIC>MOL_PROPERTY
U
SciTegic.value.DoubleValue
5.864

@<SCITEGIC>MOL_PROPERTY
W
SciTegic.value.DoubleValue
-2.347

@<SCITEGIC>MOL_PROPERTY
W(PB)
SciTegic.value.DoubleValue
-4.357

@<SCITEGIC>MOL_PROPERTY
W(SA)
SciTegic.value.DoubleValue
2.010

@<SCITEGIC>MOL_PROPERTY
Valence
SciTegic.value.DoubleValue
12.329

@<SCITEGIC>MOL_PROPERTY
Coulomb
SciTegic.value.DoubleValue
-8.532

@<SCITEGIC>MOL_PROPERTY
VdW
SciTegic.value.DoubleValue
2.068

@<SCITEGIC>MOL_PROPERTY
VdW6
SciTegic.value.DoubleValue
-8.866

@<SCITEGIC>MOL_PROPERTY
VdW12
SciTegic.value.DoubleValue
10.934

@<SCITEGIC>MOL_PROPERTY
Bond
SciTegic.value.DoubleValue
0.215

@<SCITEGIC>MOL_PROPERTY
Angle
SciTegic.value.DoubleValue
2.565

@<SCITEGIC>MOL_PROPERTY
Pdih
SciTegic.value.DoubleValue
9.548

@<SCITEGIC>MOL_PROPERTY
Idih
SciTegic.value.DoubleValue
0.000

@<SCITEGIC>MOL_PROPERTY
Tether
SciTegic.value.DoubleValue
0.000

@<TRIPOS>MOLECULE
guest-5_vm2.mol2 : vm2 ligand conformer 30
          22          22           1
SMALL
USER_CHARGES
 
@<TRIPOS>ATOM
       1    C1      19.880575   19.081798   20.794687 C.3        1 MOL1        -0.1685
       2    H1      20.542527   19.358853   19.962818 H          1 MOL1         0.0832
       3    H2      19.125711   18.410550   20.362774 H          1 MOL1         0.0832
       4    C2      19.157852   20.351237   21.306606 C.3        1 MOL1        -0.1685
       5    H3      18.907621   20.972557   20.435817 H          1 MOL1         0.0832
       6    H4      18.194165   20.070767   21.753056 H          1 MOL1         0.0832
       7    C3      19.963581   21.203084   22.314363 C.3        1 MOL1        -0.1685
       8    H5      19.608472   22.240256   22.243877 H          1 MOL1         0.0832
       9    H6      21.027943   21.226124   22.043530 H          1 MOL1         0.0832
      10    C4      19.775088   20.738539   23.779689 C.3        1 MOL1        -0.1761
      11    H7      20.170282   21.518799   24.443435 H          1 MOL1         0.0832
      12    H8      18.702306   20.666987   24.001656 H          1 MOL1         0.0832
      13    C5      20.470432   19.409548   24.145080 C.3        1 MOL1         0.1218
      14    H9      21.557657   19.559691   24.082133 H          1 MOL1         0.0789
      15    C6      20.092609   18.210214   23.246915 C.3        1 MOL1        -0.1761
      16    H10     20.470646   17.297903   23.727422 H          1 MOL1         0.0832
      17    H11     19.002651   18.097246   23.182720 H          1 MOL1         0.0832
      18    C7      20.716500   18.295895   21.833488 C.3        1 MOL1        -0.1685
      19    H12     21.721208   18.734603   21.904030 H          1 MOL1         0.0832
      20    H13     20.866821   17.278245   21.447886 H          1 MOL1         0.0832
      21    O1      20.129362   19.087686   25.486173 O.3        1 MOL1        -0.5509
      22    H14     19.160674   18.944400   25.498332 H          1 MOL1         0.3779
@<TRIPOS>BOND
    1     1     2    1
    2     1     3    1
    3     1     4    1
    4     4     5    1
    5     4     6    1
    6     4     7    1
    7     7     8    1
    8     7     9    1
    9     7    10    1
   10    10    11    1
   11    10    12    1
   12    10    13    1
   13    13    14    1
   14    13    15    1
   15    15    16    1
   16    15    17    1
   17     1    18    1
   18    15    18    1
   19    18    19    1
   20    18    20    1
   21    13    21    1
   22    21    22    1
@<TRIPOS>SUBSTRUCTURE
       1 MOL1            1 RESIDUE      1      MOL     
@<SCITEGIC>MOL_PROPERTY
VM2 Rank
SciTegic.value.IntegerValue
30

@<SCITEGIC>MOL_PROPERTY
Conf_Id
SciTegic.value.IntegerValue
386

@<SCITEGIC>MOL_PROPERTY
Probability
SciTegic.value.DoubleValue
1.72

@<SCITEGIC>MOL_PROPERTY
Sum Probability
SciTegic.value.DoubleValue
88.16

@<SCITEGIC>MOL_PROPERTY
Delta G
SciTegic.value.DoubleValue
0.621

@<SCITEGIC>MOL_PROPERTY
G
SciTegic.value.DoubleValue
47.984

@<SCITEGIC>MOL_PROPERTY
E
SciTegic.value.DoubleValue
21.428

@<SCITEGIC>MOL_PROPERTY
-TS
SciTegic.value.DoubleValue
26.556

@<SCITEGIC>MOL_PROPERTY
U+W
SciTegic.value.DoubleValue
3.543

@<SCITEGIC>MOL_PROPERTY
U
SciTegic.value.DoubleValue
5.491

@<SCITEGIC>MOL_PROPERTY
W
SciTegic.value.DoubleValue
-1.948

@<SCITEGIC>MOL_PROPERTY
W(PB)
SciTegic.value.DoubleValue
-3.950

@<SCITEGIC>MOL_PROPERTY
W(SA)
SciTegic.value.DoubleValue
2.002

@<SCITEGIC>MOL_PROPERTY
Valence
SciTegic.value.DoubleValue
12.680

@<SCITEGIC>MOL_PROPERTY
Coulomb
SciTegic.value.DoubleValue
-9.215

@<SCITEGIC>MOL_PROPERTY
VdW
SciTegic.value.DoubleValue
2.026

@<SCITEGIC>MOL_PROPERTY
VdW6
SciTegic.value.DoubleValue
-8.898

@<SCITEGIC>MOL_PROPERTY
VdW12
SciTegic.value.DoubleValue
10.924

@<SCITEGIC>MOL_PROPERTY
Bond
SciTegic.value.DoubleValue
0.211

@<SCITEGIC>MOL_PROPERTY
Angle
SciTegic.value.DoubleValue
2.587

@<SCITEGIC>MOL_PROPERTY
Pdih
SciTegic.value.DoubleValue
9.882

@<SCITEGIC>MOL_PROPERTY
Idih
SciTegic.value.DoubleValue
0.000

@<SCITEGIC>MOL_PROPERTY
Tether
SciTegic.value.DoubleValue
0.000

@<TRIPOS>MOLECULE
guest-5_vm2.mol2 : vm2 ligand conformer 31
          22          22           1
SMALL
USER_CHARGES
 
@<TRIPOS>ATOM
       1    C1      19.979950   19.107097   20.784703 C.3        1 MOL1        -0.1685
       2    H1      20.866800   18.853635   20.187880 H          1 MOL1         0.0832
       3    H2      19.123522   18.997802   20.105342 H          1 MOL1         0.0832
       4    C2      20.096627   20.590121   21.212361 C.3        1 MOL1        -0.1685
       5    H3      21.142335   20.820949   21.457077 H          1 MOL1         0.0832
       6    H4      19.855154   21.213678   20.340699 H          1 MOL1         0.0832
       7    C3      19.188009   21.005734   22.392233 C.3        1 MOL1        -0.1685
       8    H5      18.210348   20.509148   22.326412 H          1 MOL1         0.0832
       9    H6      18.989410   22.082732   22.306033 H          1 MOL1         0.0832
      10    C4      19.843954   20.756067   23.772779 C.3        1 MOL1        -0.1761
      11    H7      20.842699   21.211657   23.786786 H          1 MOL1         0.0832
      12    H8      19.258319   21.286729   24.534995 H          1 MOL1         0.0832
      13    C5      19.942974   19.275326   24.198020 C.3        1 MOL1         0.1218
      14    H9      18.924287   18.889569   24.346452 H          1 MOL1         0.0789
      15    C6      20.668336   18.356734   23.189113 C.3        1 MOL1        -0.1761
      16    H10     21.648002   18.770465   22.917137 H          1 MOL1         0.0832
      17    H11     20.864726   17.398202   23.687870 H          1 MOL1         0.0832
      18    C7      19.826716   18.069438   21.922820 C.3        1 MOL1        -0.1685
      19    H12     18.767371   17.982827   22.200603 H          1 MOL1         0.0832
      20    H13     20.107217   17.084921   21.524143 H          1 MOL1         0.0832
      21    O1      20.639434   19.217484   25.434971 O.3        1 MOL1        -0.5509
      22    H14     21.543360   19.550719   25.259164 H          1 MOL1         0.3779
@<TRIPOS>BOND
    1     1     2    1
    2     1     3    1
    3     1     4    1
    4     4     5    1
    5     4     6    1
    6     4     7    1
    7     7     8    1
    8     7     9    1
    9     7    10    1
   10    10    11    1
   11    10    12    1
   12    10    13    1
   13    13    14    1
   14    13    15    1
   15    15    16    1
   16    15    17    1
   17     1    18    1
   18    15    18    1
   19    18    19    1
   20    18    20    1
   21    13    21    1
   22    21    22    1
@<TRIPOS>SUBSTRUCTURE
       1 MOL1            1 RESIDUE      1      MOL     
@<SCITEGIC>MOL_PROPERTY
VM2 Rank
SciTegic.value.IntegerValue
31

@<SCITEGIC>MOL_PROPERTY
Conf_Id
SciTegic.value.IntegerValue
2290

@<SCITEGIC>MOL_PROPERTY
Probability
SciTegic.value.DoubleValue
1.71

@<SCITEGIC>MOL_PROPERTY
Sum Probability
SciTegic.value.DoubleValue
89.86

@<SCITEGIC>MOL_PROPERTY
Delta G
SciTegic.value.DoubleValue
0.626

@<SCITEGIC>MOL_PROPERTY
G
SciTegic.value.DoubleValue
47.988

@<SCITEGIC>MOL_PROPERTY
E
SciTegic.value.DoubleValue
21.432

@<SCITEGIC>MOL_PROPERTY
-TS
SciTegic.value.DoubleValue
26.556

@<SCITEGIC>MOL_PROPERTY
U+W
SciTegic.value.DoubleValue
3.548

@<SCITEGIC>MOL_PROPERTY
U
SciTegic.value.DoubleValue
5.491

@<SCITEGIC>MOL_PROPERTY
W
SciTegic.value.DoubleValue
-1.943

@<SCITEGIC>MOL_PROPERTY
W(PB)
SciTegic.value.DoubleValue
-3.951

@<SCITEGIC>MOL_PROPERTY
W(SA)
SciTegic.value.DoubleValue
2.008

@<SCITEGIC>MOL_PROPERTY
Valence
SciTegic.value.DoubleValue
12.680

@<SCITEGIC>MOL_PROPERTY
Coulomb
SciTegic.value.DoubleValue
-9.215

@<SCITEGIC>MOL_PROPERTY
VdW
SciTegic.value.DoubleValue
2.026

@<SCITEGIC>MOL_PROPERTY
VdW6
SciTegic.value.DoubleValue
-8.898

@<SCITEGIC>MOL_PROPERTY
VdW12
SciTegic.value.DoubleValue
10.924

@<SCITEGIC>MOL_PROPERTY
Bond
SciTegic.value.DoubleValue
0.211

@<SCITEGIC>MOL_PROPERTY
Angle
SciTegic.value.DoubleValue
2.587

@<SCITEGIC>MOL_PROPERTY
Pdih
SciTegic.value.DoubleValue
9.882

@<SCITEGIC>MOL_PROPERTY
Idih
SciTegic.value.DoubleValue
0.000

@<SCITEGIC>MOL_PROPERTY
Tether
SciTegic.value.DoubleValue
0.000

@<TRIPOS>MOLECULE
guest-5_vm2.mol2 : vm2 ligand conformer 32
          22          22           1
SMALL
USER_CHARGES
 
@<TRIPOS>ATOM
       1    C1      19.474662   19.005126   21.068260 C.3        1 MOL1        -0.1685
       2    H1      19.451449   18.667399   20.023127 H          1 MOL1         0.0832
       3    H2      18.538107   18.643572   21.514243 H          1 MOL1         0.0832
       4    C2      19.484934   20.552872   21.069436 C.3        1 MOL1        -0.1685
       5    H3      20.117168   20.906594   20.243551 H          1 MOL1         0.0832
       6    H4      18.469232   20.900582   20.836254 H          1 MOL1         0.0832
       7    C3      19.964510   21.239246   22.371098 C.3        1 MOL1        -0.1685
       8    H5      19.593362   22.273202   22.366015 H          1 MOL1         0.0832
       9    H6      21.060016   21.320244   22.361398 H          1 MOL1         0.0832
      10    C4      19.511918   20.549847   23.680634 C.3        1 MOL1        -0.1761
      11    H7      19.472612   21.312914   24.469227 H          1 MOL1         0.0832
      12    H8      18.491953   20.156272   23.582803 H          1 MOL1         0.0832
      13    C5      20.481558   19.440580   24.146045 C.3        1 MOL1         0.1218
      14    H9      21.504678   19.842162   24.116081 H          1 MOL1         0.0789
      15    C6      20.438797   18.148801   23.301427 C.3        1 MOL1        -0.1761
      16    H10     21.207438   17.464843   23.684038 H          1 MOL1         0.0832
      17    H11     19.476775   17.643127   23.458909 H          1 MOL1         0.0832
      18    C7      20.674346   18.341301   21.782689 C.3        1 MOL1        -0.1685
      19    H12     20.826796   17.347825   21.339336 H          1 MOL1         0.0832
      20    H13     21.599654   18.903412   21.596780 H          1 MOL1         0.0832
      21    O1      20.155274   19.100227   25.487412 O.3        1 MOL1        -0.5509
      22    H14     20.811496   18.432500   25.777376 H          1 MOL1         0.3779
@<TRIPOS>BOND
    1     1     2    1
    2     1     3    1
    3     1     4    1
    4     4     5    1
    5     4     6    1
    6     4     7    1
    7     7     8    1
    8     7     9    1
    9     7    10    1
   10    10    11    1
   11    10    12    1
   12    10    13    1
   13    13    14    1
   14    13    15    1
   15    15    16    1
   16    15    17    1
   17     1    18    1
   18    15    18    1
   19    18    19    1
   20    18    20    1
   21    13    21    1
   22    21    22    1
@<TRIPOS>SUBSTRUCTURE
       1 MOL1            1 RESIDUE      1      MOL     
@<SCITEGIC>MOL_PROPERTY
VM2 Rank
SciTegic.value.IntegerValue
32

@<SCITEGIC>MOL_PROPERTY
Conf_Id
SciTegic.value.IntegerValue
499

@<SCITEGIC>MOL_PROPERTY
Probability
SciTegic.value.DoubleValue
1.67

@<SCITEGIC>MOL_PROPERTY
Sum Probability
SciTegic.value.DoubleValue
91.53

@<SCITEGIC>MOL_PROPERTY
Delta G
SciTegic.value.DoubleValue
0.638

@<SCITEGIC>MOL_PROPERTY
G
SciTegic.value.DoubleValue
48.000

@<SCITEGIC>MOL_PROPERTY
E
SciTegic.value.DoubleValue
21.429

@<SCITEGIC>MOL_PROPERTY
-TS
SciTegic.value.DoubleValue
26.571

@<SCITEGIC>MOL_PROPERTY
U+W
SciTegic.value.DoubleValue
3.544

@<SCITEGIC>MOL_PROPERTY
U
SciTegic.value.DoubleValue
5.864

@<SCITEGIC>MOL_PROPERTY
W
SciTegic.value.DoubleValue
-2.320

@<SCITEGIC>MOL_PROPERTY
W(PB)
SciTegic.value.DoubleValue
-4.334

@<SCITEGIC>MOL_PROPERTY
W(SA)
SciTegic.value.DoubleValue
2.014

@<SCITEGIC>MOL_PROPERTY
Valence
SciTegic.value.DoubleValue
12.328

@<SCITEGIC>MOL_PROPERTY
Coulomb
SciTegic.value.DoubleValue
-8.532

@<SCITEGIC>MOL_PROPERTY
VdW
SciTegic.value.DoubleValue
2.068

@<SCITEGIC>MOL_PROPERTY
VdW6
SciTegic.value.DoubleValue
-8.866

@<SCITEGIC>MOL_PROPERTY
VdW12
SciTegic.value.DoubleValue
10.934

@<SCITEGIC>MOL_PROPERTY
Bond
SciTegic.value.DoubleValue
0.215

@<SCITEGIC>MOL_PROPERTY
Angle
SciTegic.value.DoubleValue
2.565

@<SCITEGIC>MOL_PROPERTY
Pdih
SciTegic.value.DoubleValue
9.548

@<SCITEGIC>MOL_PROPERTY
Idih
SciTegic.value.DoubleValue
0.000

@<SCITEGIC>MOL_PROPERTY
Tether
SciTegic.value.DoubleValue
0.000

@<TRIPOS>MOLECULE
guest-5_vm2.mol2 : vm2 ligand conformer 33
          22          22           1
SMALL
USER_CHARGES
 
@<TRIPOS>ATOM
       1    C1      20.082479   19.079613   20.994061 C.3        1 MOL1        -0.1685
       2    H1      20.758030   18.852269   20.158089 H          1 MOL1         0.0832
       3    H2      19.066178   19.004086   20.583720 H          1 MOL1         0.0832
       4    C2      20.337254   20.534064   21.453497 C.3        1 MOL1        -0.1685
       5    H3      21.333806   20.643578   21.900038 H          1 MOL1         0.0832
       6    H4      20.340548   21.167742   20.556027 H          1 MOL1         0.0832
       7    C3      19.238719   21.063045   22.403207 C.3        1 MOL1        -0.1685
       8    H5      18.263782   20.660222   22.096727 H          1 MOL1         0.0832
       9    H6      19.158243   22.151345   22.276807 H          1 MOL1         0.0832
      10    C4      19.469350   20.777320   23.908379 C.3        1 MOL1        -0.1761
      11    H7      20.181022   21.513601   24.305783 H          1 MOL1         0.0832
      12    H8      18.526296   20.975759   24.433970 H          1 MOL1         0.0832
      13    C5      19.951594   19.360581   24.304338 C.3        1 MOL1         0.1218
      14    H9      19.558507   19.166067   25.312627 H          1 MOL1         0.0789
      15    C6      19.463861   18.211399   23.386986 C.3        1 MOL1        -0.1761
      16    H10     19.518823   17.283248   23.970543 H          1 MOL1         0.0832
      17    H11     18.400572   18.350307   23.152588 H          1 MOL1         0.0832
      18    C7      20.272669   17.994683   22.078146 C.3        1 MOL1        -0.1685
      19    H12     19.966582   17.032944   21.644441 H          1 MOL1         0.0832
      20    H13     21.340913   17.878378   22.302470 H          1 MOL1         0.0832
      21    O1      21.370074   19.357294   24.378384 O.3        1 MOL1        -0.5509
      22    H14     21.664879   19.479241   23.453685 H          1 MOL1         0.3779
@<TRIPOS>BOND
    1     1     2    1
    2     1     3    1
    3     1     4    1
    4     4     5    1
    5     4     6    1
    6     4     7    1
    7     7     8    1
    8     7     9    1
    9     7    10    1
   10    10    11    1
   11    10    12    1
   12    10    13    1
   13    13    14    1
   14    13    15    1
   15    15    16    1
   16    15    17    1
   17     1    18    1
   18    15    18    1
   19    18    19    1
   20    18    20    1
   21    13    21    1
   22    21    22    1
@<TRIPOS>SUBSTRUCTURE
       1 MOL1            1 RESIDUE      1      MOL     
@<SCITEGIC>MOL_PROPERTY
VM2 Rank
SciTegic.value.IntegerValue
33

@<SCITEGIC>MOL_PROPERTY
Conf_Id
SciTegic.value.IntegerValue
2330

@<SCITEGIC>MOL_PROPERTY
Probability
SciTegic.value.DoubleValue
1.25

@<SCITEGIC>MOL_PROPERTY
Sum Probability
SciTegic.value.DoubleValue
92.78

@<SCITEGIC>MOL_PROPERTY
Delta G
SciTegic.value.DoubleValue
0.810

@<SCITEGIC>MOL_PROPERTY
G
SciTegic.value.DoubleValue
48.173

@<SCITEGIC>MOL_PROPERTY
E
SciTegic.value.DoubleValue
21.150

@<SCITEGIC>MOL_PROPERTY
-TS
SciTegic.value.DoubleValue
27.023

@<SCITEGIC>MOL_PROPERTY
U+W
SciTegic.value.DoubleValue
3.265

@<SCITEGIC>MOL_PROPERTY
U
SciTegic.value.DoubleValue
4.573

@<SCITEGIC>MOL_PROPERTY
W
SciTegic.value.DoubleValue
-1.308

@<SCITEGIC>MOL_PROPERTY
W(PB)
SciTegic.value.DoubleValue
-3.291

@<SCITEGIC>MOL_PROPERTY
W(SA)
SciTegic.value.DoubleValue
1.984

@<SCITEGIC>MOL_PROPERTY
Valence
SciTegic.value.DoubleValue
12.697

@<SCITEGIC>MOL_PROPERTY
Coulomb
SciTegic.value.DoubleValue
-10.358

@<SCITEGIC>MOL_PROPERTY
VdW
SciTegic.value.DoubleValue
2.234

@<SCITEGIC>MOL_PROPERTY
VdW6
SciTegic.value.DoubleValue
-10.225

@<SCITEGIC>MOL_PROPERTY
VdW12
SciTegic.value.DoubleValue
12.459

@<SCITEGIC>MOL_PROPERTY
Bond
SciTegic.value.DoubleValue
0.281

@<SCITEGIC>MOL_PROPERTY
Angle
SciTegic.value.DoubleValue
3.786

@<SCITEGIC>MOL_PROPERTY
Pdih
SciTegic.value.DoubleValue
8.630

@<SCITEGIC>MOL_PROPERTY
Idih
SciTegic.value.DoubleValue
0.000

@<SCITEGIC>MOL_PROPERTY
Tether
SciTegic.value.DoubleValue
0.000

@<TRIPOS>MOLECULE
guest-5_vm2.mol2 : vm2 ligand conformer 34
          22          22           1
SMALL
USER_CHARGES
 
@<TRIPOS>ATOM
       1    C1      19.335072   18.867575   21.405756 C.3        1 MOL1        -0.1685
       2    H1      19.081366   18.463975   20.415931 H          1 MOL1         0.0832
       3    H2      18.565601   18.487062   22.089591 H          1 MOL1         0.0832
       4    C2      19.286217   20.409922   21.304802 C.3        1 MOL1        -0.1685
       5    H3      20.089620   20.753111   20.638682 H          1 MOL1         0.0832
       6    H4      18.347911   20.699788   20.812397 H          1 MOL1         0.0832
       7    C3      19.382464   21.169566   22.647245 C.3        1 MOL1        -0.1685
       8    H5      18.449702   21.043310   23.212051 H          1 MOL1         0.0832
       9    H6      19.434348   22.243012   22.419751 H          1 MOL1         0.0832
      10    C4      20.606363   20.805692   23.532604 C.3        1 MOL1        -0.1761
      11    H7      21.533057   20.911684   22.953964 H          1 MOL1         0.0832
      12    H8      20.671793   21.552595   24.334400 H          1 MOL1         0.0832
      13    C5      20.566876   19.410985   24.205860 C.3        1 MOL1         0.1218
      14    H9      21.262364   19.436769   25.057113 H          1 MOL1         0.0789
      15    C6      21.008895   18.227991   23.310516 C.3        1 MOL1        -0.1761
      16    H10     22.088599   18.083095   23.445501 H          1 MOL1         0.0832
      17    H11     20.545013   17.307960   23.691135 H          1 MOL1         0.0832
      18    C7      20.734903   18.336774   21.789508 C.3        1 MOL1        -0.1685
      19    H12     21.505907   18.962676   21.319937 H          1 MOL1         0.0832
      20    H13     20.864105   17.336964   21.353000 H          1 MOL1         0.0832
      21    O1      19.265211   19.149496   24.710709 O.3        1 MOL1        -0.5509
      22    H14     18.683791   19.191300   23.925184 H          1 MOL1         0.3779
@<TRIPOS>BOND
    1     1     2    1
    2     1     3    1
    3     1     4    1
    4     4     5    1
    5     4     6    1
    6     4     7    1
    7     7     8    1
    8     7     9    1
    9     7    10    1
   10    10    11    1
   11    10    12    1
   12    10    13    1
   13    13    14    1
   14    13    15    1
   15    15    16    1
   16    15    17    1
   17     1    18    1
   18    15    18    1
   19    18    19    1
   20    18    20    1
   21    13    21    1
   22    21    22    1
@<TRIPOS>SUBSTRUCTURE
       1 MOL1            1 RESIDUE      1      MOL     
@<SCITEGIC>MOL_PROPERTY
VM2 Rank
SciTegic.value.IntegerValue
34

@<SCITEGIC>MOL_PROPERTY
Conf_Id
SciTegic.value.IntegerValue
300

@<SCITEGIC>MOL_PROPERTY
Probability
SciTegic.value.DoubleValue
1.24

@<SCITEGIC>MOL_PROPERTY
Sum Probability
SciTegic.value.DoubleValue
94.02

@<SCITEGIC>MOL_PROPERTY
Delta G
SciTegic.value.DoubleValue
0.817

@<SCITEGIC>MOL_PROPERTY
G
SciTegic.value.DoubleValue
48.179

@<SCITEGIC>MOL_PROPERTY
E
SciTegic.value.DoubleValue
21.156

@<SCITEGIC>MOL_PROPERTY
-TS
SciTegic.value.DoubleValue
27.023

@<SCITEGIC>MOL_PROPERTY
U+W
SciTegic.value.DoubleValue
3.271

@<SCITEGIC>MOL_PROPERTY
U
SciTegic.value.DoubleValue
4.573

@<SCITEGIC>MOL_PROPERTY
W
SciTegic.value.DoubleValue
-1.301

@<SCITEGIC>MOL_PROPERTY
W(PB)
SciTegic.value.DoubleValue
-3.281

@<SCITEGIC>MOL_PROPERTY
W(SA)
SciTegic.value.DoubleValue
1.980

@<SCITEGIC>MOL_PROPERTY
Valence
SciTegic.value.DoubleValue
12.697

@<SCITEGIC>MOL_PROPERTY
Coulomb
SciTegic.value.DoubleValue
-10.358

@<SCITEGIC>MOL_PROPERTY
VdW
SciTegic.value.DoubleValue
2.234

@<SCITEGIC>MOL_PROPERTY
VdW6
SciTegic.value.DoubleValue
-10.225

@<SCITEGIC>MOL_PROPERTY
VdW12
SciTegic.value.DoubleValue
12.458

@<SCITEGIC>MOL_PROPERTY
Bond
SciTegic.value.DoubleValue
0.281

@<SCITEGIC>MOL_PROPERTY
Angle
SciTegic.value.DoubleValue
3.786

@<SCITEGIC>MOL_PROPERTY
Pdih
SciTegic.value.DoubleValue
8.630

@<SCITEGIC>MOL_PROPERTY
Idih
SciTegic.value.DoubleValue
0.000

@<SCITEGIC>MOL_PROPERTY
Tether
SciTegic.value.DoubleValue
0.000

@<TRIPOS>MOLECULE
guest-5_vm2.mol2 : vm2 ligand conformer 35
          22          22           1
SMALL
USER_CHARGES
 
@<TRIPOS>ATOM
       1    C1      20.511923   19.194150   21.221215 C.3        1 MOL1        -0.1685
       2    H1      21.525860   19.308547   21.625381 H          1 MOL1         0.0832
       3    H2      20.640359   18.896597   20.171464 H          1 MOL1         0.0832
       4    C2      19.745949   20.537491   21.232715 C.3        1 MOL1        -0.1685
       5    H3      20.224923   21.220658   20.518033 H          1 MOL1         0.0832
       6    H4      18.728177   20.375288   20.852212 H          1 MOL1         0.0832
       7    C3      19.666962   21.248520   22.602631 C.3        1 MOL1        -0.1685
       8    H5      19.019068   22.127780   22.484876 H          1 MOL1         0.0832
       9    H6      20.652091   21.654474   22.866664 H          1 MOL1         0.0832
      10    C4      19.104221   20.388862   23.768179 C.3        1 MOL1        -0.1761
      11    H7      18.902860   21.061729   24.611818 H          1 MOL1         0.0832
      12    H8      18.130309   19.967444   23.487599 H          1 MOL1         0.0832
      13    C5      20.030779   19.262228   24.289930 C.3        1 MOL1         0.1218
      14    H9      19.692980   19.001286   25.303242 H          1 MOL1         0.0789
      15    C6      20.011337   17.951182   23.466963 C.3        1 MOL1        -0.1761
      16    H10     20.961505   17.423503   23.625875 H          1 MOL1         0.0832
      17    H11     19.242169   17.293294   23.891861 H          1 MOL1         0.0832
      18    C7      19.746996   18.062609   21.944437 C.3        1 MOL1        -0.1685
      19    H12     20.021111   17.103003   21.485232 H          1 MOL1         0.0832
      20    H13     18.669183   18.175427   21.764754 H          1 MOL1         0.0832
      21    O1      21.367832   19.732959   24.380930 O.3        1 MOL1        -0.5509
      22    H14     21.597259   19.999801   23.468238 H          1 MOL1         0.3779
@<TRIPOS>BOND
    1     1     2    1
    2     1     3    1
    3     1     4    1
    4     4     5    1
    5     4     6    1
    6     4     7    1
    7     7     8    1
    8     7     9    1
    9     7    10    1
   10    10    11    1
   11    10    12    1
   12    10    13    1
   13    13    14    1
   14    13    15    1
   15    15    16    1
   16    15    17    1
   17     1    18    1
   18    15    18    1
   19    18    19    1
   20    18    20    1
   21    13    21    1
   22    21    22    1
@<TRIPOS>SUBSTRUCTURE
       1 MOL1            1 RESIDUE      1      MOL     
@<SCITEGIC>MOL_PROPERTY
VM2 Rank
SciTegic.value.IntegerValue
35

@<SCITEGIC>MOL_PROPERTY
Conf_Id
SciTegic.value.IntegerValue
2549

@<SCITEGIC>MOL_PROPERTY
Probability
SciTegic.value.DoubleValue
1.19

@<SCITEGIC>MOL_PROPERTY
Sum Probability
SciTegic.value.DoubleValue
95.21

@<SCITEGIC>MOL_PROPERTY
Delta G
SciTegic.value.DoubleValue
0.839

@<SCITEGIC>MOL_PROPERTY
G
SciTegic.value.DoubleValue
48.201

@<SCITEGIC>MOL_PROPERTY
E
SciTegic.value.DoubleValue
21.178

@<SCITEGIC>MOL_PROPERTY
-TS
SciTegic.value.DoubleValue
27.023

@<SCITEGIC>MOL_PROPERTY
U+W
SciTegic.value.DoubleValue
3.293

@<SCITEGIC>MOL_PROPERTY
U
SciTegic.value.DoubleValue
4.573

@<SCITEGIC>MOL_PROPERTY
W
SciTegic.value.DoubleValue
-1.279

@<SCITEGIC>MOL_PROPERTY
W(PB)
SciTegic.value.DoubleValue
-3.268

@<SCITEGIC>MOL_PROPERTY
W(SA)
SciTegic.value.DoubleValue
1.989

@<SCITEGIC>MOL_PROPERTY
Valence
SciTegic.value.DoubleValue
12.697

@<SCITEGIC>MOL_PROPERTY
Coulomb
SciTegic.value.DoubleValue
-10.358

@<SCITEGIC>MOL_PROPERTY
VdW
SciTegic.value.DoubleValue
2.234

@<SCITEGIC>MOL_PROPERTY
VdW6
SciTegic.value.DoubleValue
-10.225

@<SCITEGIC>MOL_PROPERTY
VdW12
SciTegic.value.DoubleValue
12.458

@<SCITEGIC>MOL_PROPERTY
Bond
SciTegic.value.DoubleValue
0.281

@<SCITEGIC>MOL_PROPERTY
Angle
SciTegic.value.DoubleValue
3.786

@<SCITEGIC>MOL_PROPERTY
Pdih
SciTegic.value.DoubleValue
8.630

@<SCITEGIC>MOL_PROPERTY
Idih
SciTegic.value.DoubleValue
0.000

@<SCITEGIC>MOL_PROPERTY
Tether
SciTegic.value.DoubleValue
0.000

@<TRIPOS>MOLECULE
guest-5_vm2.mol2 : vm2 ligand conformer 36
          22          22           1
SMALL
USER_CHARGES
 
@<TRIPOS>ATOM
       1    C1      19.710633   18.995587   21.042793 C.3        1 MOL1        -0.1685
       2    H1      20.528314   19.334552   20.392062 H          1 MOL1         0.0832
       3    H2      19.012460   18.457782   20.386879 H          1 MOL1         0.0832
       4    C2      18.985752   20.228613   21.630672 C.3        1 MOL1        -0.1685
       5    H3      18.494440   20.750506   20.798054 H          1 MOL1         0.0832
       6    H4      18.179858   19.930728   22.313538 H          1 MOL1         0.0832
       7    C3      19.953161   21.224518   22.309520 C.3        1 MOL1        -0.1685
       8    H5      19.531823   22.235780   22.227811 H          1 MOL1         0.0832
       9    H6      20.898709   21.255745   21.751252 H          1 MOL1         0.0832
      10    C4      20.242364   20.952030   23.807012 C.3        1 MOL1        -0.1761
      11    H7      21.109903   21.559717   24.095226 H          1 MOL1         0.0832
      12    H8      19.407637   21.338784   24.407151 H          1 MOL1         0.0832
      13    C5      20.518469   19.488699   24.230010 C.3        1 MOL1         0.1218
      14    H9      21.191177   19.535081   25.098520 H          1 MOL1         0.0789
      15    C6      21.204882   18.604867   23.158695 C.3        1 MOL1        -0.1761
      16    H10     22.015963   19.167367   22.678531 H          1 MOL1         0.0832
      17    H11     21.692898   17.774579   23.685465 H          1 MOL1         0.0832
      18    C7      20.269839   17.994062   22.078509 C.3        1 MOL1        -0.1685
      19    H12     20.837233   17.229692   21.530299 H          1 MOL1         0.0832
      20    H13     19.442364   17.449396   22.551388 H          1 MOL1         0.0832
      21    O1      19.300900   18.889625   24.649789 O.3        1 MOL1        -0.5509
      22    H14     18.765083   18.823941   23.834049 H          1 MOL1         0.3779
@<TRIPOS>BOND
    1     1     2    1
    2     1     3    1
    3     1     4    1
    4     4     5    1
    5     4     6    1
    6     4     7    1
    7     7     8    1
    8     7     9    1
    9     7    10    1
   10    10    11    1
   11    10    12    1
   12    10    13    1
   13    13    14    1
   14    13    15    1
   15    15    16    1
   16    15    17    1
   17     1    18    1
   18    15    18    1
   19    18    19    1
   20    18    20    1
   21    13    21    1
   22    21    22    1
@<TRIPOS>SUBSTRUCTURE
       1 MOL1            1 RESIDUE      1      MOL     
@<SCITEGIC>MOL_PROPERTY
VM2 Rank
SciTegic.value.IntegerValue
36

@<SCITEGIC>MOL_PROPERTY
Conf_Id
SciTegic.value.IntegerValue
734

@<SCITEGIC>MOL_PROPERTY
Probability
SciTegic.value.DoubleValue
1.12

@<SCITEGIC>MOL_PROPERTY
Sum Probability
SciTegic.value.DoubleValue
96.34

@<SCITEGIC>MOL_PROPERTY
Delta G
SciTegic.value.DoubleValue
0.876

@<SCITEGIC>MOL_PROPERTY
G
SciTegic.value.DoubleValue
48.238

@<SCITEGIC>MOL_PROPERTY
E
SciTegic.value.DoubleValue
21.216

@<SCITEGIC>MOL_PROPERTY
-TS
SciTegic.value.DoubleValue
27.023

@<SCITEGIC>MOL_PROPERTY
U+W
SciTegic.value.DoubleValue
3.331

@<SCITEGIC>MOL_PROPERTY
U
SciTegic.value.DoubleValue
4.573

@<SCITEGIC>MOL_PROPERTY
W
SciTegic.value.DoubleValue
-1.242

@<SCITEGIC>MOL_PROPERTY
W(PB)
SciTegic.value.DoubleValue
-3.234

@<SCITEGIC>MOL_PROPERTY
W(SA)
SciTegic.value.DoubleValue
1.992

@<SCITEGIC>MOL_PROPERTY
Valence
SciTegic.value.DoubleValue
12.697

@<SCITEGIC>MOL_PROPERTY
Coulomb
SciTegic.value.DoubleValue
-10.358

@<SCITEGIC>MOL_PROPERTY
VdW
SciTegic.value.DoubleValue
2.234

@<SCITEGIC>MOL_PROPERTY
VdW6
SciTegic.value.DoubleValue
-10.225

@<SCITEGIC>MOL_PROPERTY
VdW12
SciTegic.value.DoubleValue
12.458

@<SCITEGIC>MOL_PROPERTY
Bond
SciTegic.value.DoubleValue
0.281

@<SCITEGIC>MOL_PROPERTY
Angle
SciTegic.value.DoubleValue
3.786

@<SCITEGIC>MOL_PROPERTY
Pdih
SciTegic.value.DoubleValue
8.630

@<SCITEGIC>MOL_PROPERTY
Idih
SciTegic.value.DoubleValue
0.000

@<SCITEGIC>MOL_PROPERTY
Tether
SciTegic.value.DoubleValue
0.000

@<TRIPOS>MOLECULE
guest-5_vm2.mol2 : vm2 ligand conformer 37
          22          22           1
SMALL
USER_CHARGES
 
@<TRIPOS>ATOM
       1    C1      20.102951   19.181366   20.974812 C.3        1 MOL1        -0.1685
       2    H1      21.163175   19.443868   20.858633 H          1 MOL1         0.0832
       3    H2      19.797882   18.757461   20.008364 H          1 MOL1         0.0832
       4    C2      19.275923   20.466991   21.215376 C.3        1 MOL1        -0.1685
       5    H3      19.710851   21.273657   20.609646 H          1 MOL1         0.0832
       6    H4      18.260419   20.315288   20.824796 H          1 MOL1         0.0832
       7    C3      19.158330   20.943481   22.682807 C.3        1 MOL1        -0.1685
       8    H5      18.344850   20.397819   23.178735 H          1 MOL1         0.0832
       9    H6      18.838792   21.994285   22.671355 H          1 MOL1         0.0832
      10    C4      20.461905   20.827174   23.514901 C.3        1 MOL1        -0.1761
      11    H7      21.329045   21.080172   22.891251 H          1 MOL1         0.0832
      12    H8      20.433824   21.588289   24.305281 H          1 MOL1         0.0832
      13    C5      20.687790   19.454125   24.196225 C.3        1 MOL1         0.1218
      14    H9      21.575129   19.553554   24.837974 H          1 MOL1         0.0789
      15    C6      20.965132   18.278928   23.231296 C.3        1 MOL1        -0.1761
      16    H10     21.976281   18.390909   22.819531 H          1 MOL1         0.0832
      17    H11     20.988434   17.354082   23.822507 H          1 MOL1         0.0832
      18    C7      19.958331   18.096337   22.067212 C.3        1 MOL1        -0.1685
      19    H12     18.927748   18.053245   22.445203 H          1 MOL1         0.0832
      20    H13     20.154594   17.119291   21.605526 H          1 MOL1         0.0832
      21    O1      19.575639   19.129597   25.024371 O.3        1 MOL1        -0.5509
      22    H14     19.403025   19.916500   25.580493 H          1 MOL1         0.3779
@<TRIPOS>BOND
    1     1     2    1
    2     1     3    1
    3     1     4    1
    4     4     5    1
    5     4     6    1
    6     4     7    1
    7     7     8    1
    8     7     9    1
    9     7    10    1
   10    10    11    1
   11    10    12    1
   12    10    13    1
   13    13    14    1
   14    13    15    1
   15    15    16    1
   16    15    17    1
   17     1    18    1
   18    15    18    1
   19    18    19    1
   20    18    20    1
   21    13    21    1
   22    21    22    1
@<TRIPOS>SUBSTRUCTURE
       1 MOL1            1 RESIDUE      1      MOL     
@<SCITEGIC>MOL_PROPERTY
VM2 Rank
SciTegic.value.IntegerValue
37

@<SCITEGIC>MOL_PROPERTY
Conf_Id
SciTegic.value.IntegerValue
1626

@<SCITEGIC>MOL_PROPERTY
Probability
SciTegic.value.DoubleValue
0.52

@<SCITEGIC>MOL_PROPERTY
Sum Probability
SciTegic.value.DoubleValue
96.85

@<SCITEGIC>MOL_PROPERTY
Delta G
SciTegic.value.DoubleValue
1.337

@<SCITEGIC>MOL_PROPERTY
G
SciTegic.value.DoubleValue
48.699

@<SCITEGIC>MOL_PROPERTY
E
SciTegic.value.DoubleValue
21.997

@<SCITEGIC>MOL_PROPERTY
-TS
SciTegic.value.DoubleValue
26.702

@<SCITEGIC>MOL_PROPERTY
U+W
SciTegic.value.DoubleValue
4.112

@<SCITEGIC>MOL_PROPERTY
U
SciTegic.value.DoubleValue
6.374

@<SCITEGIC>MOL_PROPERTY
W
SciTegic.value.DoubleValue
-2.262

@<SCITEGIC>MOL_PROPERTY
W(PB)
SciTegic.value.DoubleValue
-4.261

@<SCITEGIC>MOL_PROPERTY
W(SA)
SciTegic.value.DoubleValue
1.999

@<SCITEGIC>MOL_PROPERTY
Valence
SciTegic.value.DoubleValue
12.093

@<SCITEGIC>MOL_PROPERTY
Coulomb
SciTegic.value.DoubleValue
-8.058

@<SCITEGIC>MOL_PROPERTY
VdW
SciTegic.value.DoubleValue
2.339

@<SCITEGIC>MOL_PROPERTY
VdW6
SciTegic.value.DoubleValue
-9.683

@<SCITEGIC>MOL_PROPERTY
VdW12
SciTegic.value.DoubleValue
12.022

@<SCITEGIC>MOL_PROPERTY
Bond
SciTegic.value.DoubleValue
0.268

@<SCITEGIC>MOL_PROPERTY
Angle
SciTegic.value.DoubleValue
3.005

@<SCITEGIC>MOL_PROPERTY
Pdih
SciTegic.value.DoubleValue
8.820

@<SCITEGIC>MOL_PROPERTY
Idih
SciTegic.value.DoubleValue
0.000

@<SCITEGIC>MOL_PROPERTY
Tether
SciTegic.value.DoubleValue
0.000

@<TRIPOS>MOLECULE
guest-5_vm2.mol2 : vm2 ligand conformer 38
          22          22           1
SMALL
USER_CHARGES
 
@<TRIPOS>ATOM
       1    C1      20.113828   19.085788   20.888743 C.3        1 MOL1        -0.1685
       2    H1      19.412423   18.503199   20.276040 H          1 MOL1         0.0832
       3    H2      20.978163   19.287922   20.241531 H          1 MOL1         0.0832
       4    C2      19.436824   20.428244   21.255013 C.3        1 MOL1        -0.1685
       5    H3      19.495931   21.088298   20.378875 H          1 MOL1         0.0832
       6    H4      18.364495   20.263291   21.426425 H          1 MOL1         0.0832
       7    C3      20.046662   21.157168   22.474976 C.3        1 MOL1        -0.1685
       8    H5      19.857781   22.232881   22.358966 H          1 MOL1         0.0832
       9    H6      21.138745   21.040271   22.497868 H          1 MOL1         0.0832
      10    C4      19.416196   20.709557   23.818195 C.3        1 MOL1        -0.1761
      11    H7      19.696500   21.433063   24.594972 H          1 MOL1         0.0832
      12    H8      18.323009   20.768804   23.741100 H          1 MOL1         0.0832
      13    C5      19.804092   19.299472   24.318486 C.3        1 MOL1         0.1218
      14    H9      19.142671   19.070957   25.166661 H          1 MOL1         0.0789
      15    C6      19.627097   18.160804   23.282822 C.3        1 MOL1        -0.1761
      16    H10     19.784282   17.209269   23.806903 H          1 MOL1         0.0832
      17    H11     18.587725   18.136420   22.930699 H          1 MOL1         0.0832
      18    C7      20.595750   18.214049   22.072824 C.3        1 MOL1        -0.1685
      19    H12     21.586530   18.557452   22.398199 H          1 MOL1         0.0832
      20    H13     20.750434   17.193045   21.698594 H          1 MOL1         0.0832
      21    O1      21.145551   19.322919   24.795941 O.3        1 MOL1        -0.5509
      22    H14     21.366176   18.404480   25.052999 H          1 MOL1         0.3779
@<TRIPOS>BOND
    1     1     2    1
    2     1     3    1
    3     1     4    1
    4     4     5    1
    5     4     6    1
    6     4     7    1
    7     7     8    1
    8     7     9    1
    9     7    10    1
   10    10    11    1
   11    10    12    1
   12    10    13    1
   13    13    14    1
   14    13    15    1
   15    15    16    1
   16    15    17    1
   17     1    18    1
   18    15    18    1
   19    18    19    1
   20    18    20    1
   21    13    21    1
   22    21    22    1
@<TRIPOS>SUBSTRUCTURE
       1 MOL1            1 RESIDUE      1      MOL     
@<SCITEGIC>MOL_PROPERTY
VM2 Rank
SciTegic.value.IntegerValue
38

@<SCITEGIC>MOL_PROPERTY
Conf_Id
SciTegic.value.IntegerValue
2592

@<SCITEGIC>MOL_PROPERTY
Probability
SciTegic.value.DoubleValue
0.50

@<SCITEGIC>MOL_PROPERTY
Sum Probability
SciTegic.value.DoubleValue
97.35

@<SCITEGIC>MOL_PROPERTY
Delta G
SciTegic.value.DoubleValue
1.358

@<SCITEGIC>MOL_PROPERTY
G
SciTegic.value.DoubleValue
48.721

@<SCITEGIC>MOL_PROPERTY
E
SciTegic.value.DoubleValue
22.018

@<SCITEGIC>MOL_PROPERTY
-TS
SciTegic.value.DoubleValue
26.703

@<SCITEGIC>MOL_PROPERTY
U+W
SciTegic.value.DoubleValue
4.133

@<SCITEGIC>MOL_PROPERTY
U
SciTegic.value.DoubleValue
6.374

@<SCITEGIC>MOL_PROPERTY
W
SciTegic.value.DoubleValue
-2.240

@<SCITEGIC>MOL_PROPERTY
W(PB)
SciTegic.value.DoubleValue
-4.239

@<SCITEGIC>MOL_PROPERTY
W(SA)
SciTegic.value.DoubleValue
1.998

@<SCITEGIC>MOL_PROPERTY
Valence
SciTegic.value.DoubleValue
12.093

@<SCITEGIC>MOL_PROPERTY
Coulomb
SciTegic.value.DoubleValue
-8.058

@<SCITEGIC>MOL_PROPERTY
VdW
SciTegic.value.DoubleValue
2.339

@<SCITEGIC>MOL_PROPERTY
VdW6
SciTegic.value.DoubleValue
-9.683

@<SCITEGIC>MOL_PROPERTY
VdW12
SciTegic.value.DoubleValue
12.022

@<SCITEGIC>MOL_PROPERTY
Bond
SciTegic.value.DoubleValue
0.268

@<SCITEGIC>MOL_PROPERTY
Angle
SciTegic.value.DoubleValue
3.005

@<SCITEGIC>MOL_PROPERTY
Pdih
SciTegic.value.DoubleValue
8.820

@<SCITEGIC>MOL_PROPERTY
Idih
SciTegic.value.DoubleValue
0.000

@<SCITEGIC>MOL_PROPERTY
Tether
SciTegic.value.DoubleValue
0.000

@<TRIPOS>MOLECULE
guest-5_vm2.mol2 : vm2 ligand conformer 39
          22          22           1
SMALL
USER_CHARGES
 
@<TRIPOS>ATOM
       1    C1      19.705514   18.985667   20.938787 C.3        1 MOL1        -0.1685
       2    H1      20.434920   18.753915   20.150726 H          1 MOL1         0.0832
       3    H2      18.722245   18.734740   20.518030 H          1 MOL1         0.0832
       4    C2      19.759037   20.507257   21.215503 C.3        1 MOL1        -0.1685
       5    H3      20.795776   20.859474   21.128360 H          1 MOL1         0.0832
       6    H4      19.207314   21.017533   20.414252 H          1 MOL1         0.0832
       7    C3      19.180185   20.944687   22.581200 C.3        1 MOL1        -0.1685
       8    H5      18.299336   20.343991   22.845975 H          1 MOL1         0.0832
       9    H6      18.825508   21.979742   22.485521 H          1 MOL1         0.0832
      10    C4      20.233016   20.909847   23.718044 C.3        1 MOL1        -0.1761
      11    H7      19.839038   21.468015   24.577488 H          1 MOL1         0.0832
      12    H8      21.128751   21.456805   23.397094 H          1 MOL1         0.0832
      13    C5      20.656655   19.508527   24.213958 C.3        1 MOL1         0.1218
      14    H9      21.523297   19.654709   24.874760 H          1 MOL1         0.0789
      15    C6      21.092056   18.520011   23.103213 C.3        1 MOL1        -0.1761
      16    H10     21.916949   18.952719   22.522529 H          1 MOL1         0.0832
      17    H11     21.510366   17.632502   23.595280 H          1 MOL1         0.0832
      18    C7      19.958569   18.057836   22.150941 C.3        1 MOL1        -0.1685
      19    H12     19.023863   17.929165   22.712376 H          1 MOL1         0.0832
      20    H13     20.205824   17.059522   21.765381 H          1 MOL1         0.0832
      21    O1      19.600969   18.944170   24.985353 O.3        1 MOL1        -0.5509
      22    H14     19.888710   18.042154   25.234062 H          1 MOL1         0.3779
@<TRIPOS>BOND
    1     1     2    1
    2     1     3    1
    3     1     4    1
    4     4     5    1
    5     4     6    1
    6     4     7    1
    7     7     8    1
    8     7     9    1
    9     7    10    1
   10    10    11    1
   11    10    12    1
   12    10    13    1
   13    13    14    1
   14    13    15    1
   15    15    16    1
   16    15    17    1
   17     1    18    1
   18    15    18    1
   19    18    19    1
   20    18    20    1
   21    13    21    1
   22    21    22    1
@<TRIPOS>SUBSTRUCTURE
       1 MOL1            1 RESIDUE      1      MOL     
@<SCITEGIC>MOL_PROPERTY
VM2 Rank
SciTegic.value.IntegerValue
39

@<SCITEGIC>MOL_PROPERTY
Conf_Id
SciTegic.value.IntegerValue
1352

@<SCITEGIC>MOL_PROPERTY
Probability
SciTegic.value.DoubleValue
0.50

@<SCITEGIC>MOL_PROPERTY
Sum Probability
SciTegic.value.DoubleValue
97.85

@<SCITEGIC>MOL_PROPERTY
Delta G
SciTegic.value.DoubleValue
1.358

@<SCITEGIC>MOL_PROPERTY
G
SciTegic.value.DoubleValue
48.721

@<SCITEGIC>MOL_PROPERTY
E
SciTegic.value.DoubleValue
22.019

@<SCITEGIC>MOL_PROPERTY
-TS
SciTegic.value.DoubleValue
26.702

@<SCITEGIC>MOL_PROPERTY
U+W
SciTegic.value.DoubleValue
4.134

@<SCITEGIC>MOL_PROPERTY
U
SciTegic.value.DoubleValue
6.373

@<SCITEGIC>MOL_PROPERTY
W
SciTegic.value.DoubleValue
-2.240

@<SCITEGIC>MOL_PROPERTY
W(PB)
SciTegic.value.DoubleValue
-4.254

@<SCITEGIC>MOL_PROPERTY
W(SA)
SciTegic.value.DoubleValue
2.015

@<SCITEGIC>MOL_PROPERTY
Valence
SciTegic.value.DoubleValue
12.093

@<SCITEGIC>MOL_PROPERTY
Coulomb
SciTegic.value.DoubleValue
-8.058

@<SCITEGIC>MOL_PROPERTY
VdW
SciTegic.value.DoubleValue
2.339

@<SCITEGIC>MOL_PROPERTY
VdW6
SciTegic.value.DoubleValue
-9.683

@<SCITEGIC>MOL_PROPERTY
VdW12
SciTegic.value.DoubleValue
12.022

@<SCITEGIC>MOL_PROPERTY
Bond
SciTegic.value.DoubleValue
0.268

@<SCITEGIC>MOL_PROPERTY
Angle
SciTegic.value.DoubleValue
3.005

@<SCITEGIC>MOL_PROPERTY
Pdih
SciTegic.value.DoubleValue
8.820

@<SCITEGIC>MOL_PROPERTY
Idih
SciTegic.value.DoubleValue
0.000

@<SCITEGIC>MOL_PROPERTY
Tether
SciTegic.value.DoubleValue
0.000

@<TRIPOS>MOLECULE
guest-5_vm2.mol2 : vm2 ligand conformer 40
          22          22           1
SMALL
USER_CHARGES
 
@<TRIPOS>ATOM
       1    C1      19.973688   19.189182   21.068595 C.3        1 MOL1        -0.1685
       2    H1      20.912135   19.704424   20.823682 H          1 MOL1         0.0832
       3    H2      19.588353   18.790854   20.120212 H          1 MOL1         0.0832
       4    C2      18.926693   20.179721   21.628213 C.3        1 MOL1        -0.1685
       5    H3      18.436529   20.692668   20.789649 H          1 MOL1         0.0832
       6    H4      18.129870   19.615288   22.131503 H          1 MOL1         0.0832
       7    C3      19.478016   21.257357   22.593458 C.3        1 MOL1        -0.1685
       8    H5      18.647524   21.618697   23.214826 H          1 MOL1         0.0832
       9    H6      19.803399   22.124473   22.002836 H          1 MOL1         0.0832
      10    C4      20.657115   20.838896   23.511243 C.3        1 MOL1        -0.1761
      11    H7      21.590424   20.895415   22.936235 H          1 MOL1         0.0832
      12    H8      20.761274   21.595751   24.299391 H          1 MOL1         0.0832
      13    C5      20.577465   19.445679   24.179921 C.3        1 MOL1         0.1218
      14    H9      21.256822   19.472664   25.044091 H          1 MOL1         0.0789
      15    C6      21.084285   18.307165   23.263707 C.3        1 MOL1        -0.1761
      16    H10     22.106805   18.543457   22.942362 H          1 MOL1         0.0832
      17    H11     21.166558   17.394306   23.867605 H          1 MOL1         0.0832
      18    C7      20.227105   17.989861   22.013509 C.3        1 MOL1        -0.1685
      19    H12     19.266372   17.561415   22.330268 H          1 MOL1         0.0832
      20    H13     20.734258   17.198873   21.444847 H          1 MOL1         0.0832
      21    O1      19.261634   19.170139   24.648354 O.3        1 MOL1        -0.5509
      22    H14     18.931722   20.002635   25.041755 H          1 MOL1         0.3779
@<TRIPOS>BOND
    1     1     2    1
    2     1     3    1
    3     1     4    1
    4     4     5    1
    5     4     6    1
    6     4     7    1
    7     7     8    1
    8     7     9    1
    9     7    10    1
   10    10    11    1
   11    10    12    1
   12    10    13    1
   13    13    14    1
   14    13    15    1
   15    15    16    1
   16    15    17    1
   17     1    18    1
   18    15    18    1
   19    18    19    1
   20    18    20    1
   21    13    21    1
   22    21    22    1
@<TRIPOS>SUBSTRUCTURE
       1 MOL1            1 RESIDUE      1      MOL     
@<SCITEGIC>MOL_PROPERTY
VM2 Rank
SciTegic.value.IntegerValue
40

@<SCITEGIC>MOL_PROPERTY
Conf_Id
SciTegic.value.IntegerValue
922

@<SCITEGIC>MOL_PROPERTY
Probability
SciTegic.value.DoubleValue
0.23

@<SCITEGIC>MOL_PROPERTY
Sum Probability
SciTegic.value.DoubleValue
98.08

@<SCITEGIC>MOL_PROPERTY
Delta G
SciTegic.value.DoubleValue
1.815

@<SCITEGIC>MOL_PROPERTY
G
SciTegic.value.DoubleValue
49.178

@<SCITEGIC>MOL_PROPERTY
E
SciTegic.value.DoubleValue
22.505

@<SCITEGIC>MOL_PROPERTY
-TS
SciTegic.value.DoubleValue
26.672

@<SCITEGIC>MOL_PROPERTY
U+W
SciTegic.value.DoubleValue
4.620

@<SCITEGIC>MOL_PROPERTY
U
SciTegic.value.DoubleValue
6.656

@<SCITEGIC>MOL_PROPERTY
W
SciTegic.value.DoubleValue
-2.035

@<SCITEGIC>MOL_PROPERTY
W(PB)
SciTegic.value.DoubleValue
-4.035

@<SCITEGIC>MOL_PROPERTY
W(SA)
SciTegic.value.DoubleValue
2.000

@<SCITEGIC>MOL_PROPERTY
Valence
SciTegic.value.DoubleValue
12.237

@<SCITEGIC>MOL_PROPERTY
Coulomb
SciTegic.value.DoubleValue
-7.547

@<SCITEGIC>MOL_PROPERTY
VdW
SciTegic.value.DoubleValue
1.965

@<SCITEGIC>MOL_PROPERTY
VdW6
SciTegic.value.DoubleValue
-10.135

@<SCITEGIC>MOL_PROPERTY
VdW12
SciTegic.value.DoubleValue
12.100

@<SCITEGIC>MOL_PROPERTY
Bond
SciTegic.value.DoubleValue
0.261

@<SCITEGIC>MOL_PROPERTY
Angle
SciTegic.value.DoubleValue
3.590

@<SCITEGIC>MOL_PROPERTY
Pdih
SciTegic.value.DoubleValue
8.387

@<SCITEGIC>MOL_PROPERTY
Idih
SciTegic.value.DoubleValue
0.000

@<SCITEGIC>MOL_PROPERTY
Tether
SciTegic.value.DoubleValue
0.000

@<TRIPOS>MOLECULE
guest-5_vm2.mol2 : vm2 ligand conformer 41
          22          22           1
SMALL
USER_CHARGES
 
@<TRIPOS>ATOM
       1    C1      19.273177   18.898579   21.398904 C.3        1 MOL1        -0.1685
       2    H1      18.344915   18.819407   21.981030 H          1 MOL1         0.0832
       3    H2      19.026246   18.511372   20.401077 H          1 MOL1         0.0832
       4    C2      19.669004   20.388140   21.276140 C.3        1 MOL1        -0.1685
       5    H3      20.717405   20.493015   20.966311 H          1 MOL1         0.0832
       6    H4      19.067598   20.831954   20.471207 H          1 MOL1         0.0832
       7    C3      19.387729   21.190149   22.569631 C.3        1 MOL1        -0.1685
       8    H5      18.367098   20.980702   22.917989 H          1 MOL1         0.0832
       9    H6      19.406997   22.261154   22.327106 H          1 MOL1         0.0832
      10    C4      20.385889   20.942128   23.727471 C.3        1 MOL1        -0.1761
      11    H7      21.367891   21.339841   23.440865 H          1 MOL1         0.0832
      12    H8      20.066247   21.536431   24.593151 H          1 MOL1         0.0832
      13    C5      20.560678   19.476143   24.188846 C.3        1 MOL1         0.1218
      14    H9      21.234146   19.503674   25.057597 H          1 MOL1         0.0789
      15    C6      21.247477   18.586683   23.125033 C.3        1 MOL1        -0.1761
      16    H10     22.045570   19.169694   22.647498 H          1 MOL1         0.0832
      17    H11     21.762936   17.765980   23.640399 H          1 MOL1         0.0832
      18    C7      20.347111   17.972688   22.020468 C.3        1 MOL1        -0.1685
      19    H12     19.843108   17.082004   22.419275 H          1 MOL1         0.0832
      20    H13     21.002048   17.606535   21.218228 H          1 MOL1         0.0832
      21    O1      19.314935   18.923490   24.600507 O.3        1 MOL1        -0.5509
      22    H14     19.456875   17.959047   24.680268 H          1 MOL1         0.3779
@<TRIPOS>BOND
    1     1     2    1
    2     1     3    1
    3     1     4    1
    4     4     5    1
    5     4     6    1
    6     4     7    1
    7     7     8    1
    8     7     9    1
    9     7    10    1
   10    10    11    1
   11    10    12    1
   12    10    13    1
   13    13    14    1
   14    13    15    1
   15    15    16    1
   16    15    17    1
   17     1    18    1
   18    15    18    1
   19    18    19    1
   20    18    20    1
   21    13    21    1
   22    21    22    1
@<TRIPOS>SUBSTRUCTURE
       1 MOL1            1 RESIDUE      1      MOL     
@<SCITEGIC>MOL_PROPERTY
VM2 Rank
SciTegic.value.IntegerValue
41

@<SCITEGIC>MOL_PROPERTY
Conf_Id
SciTegic.value.IntegerValue
835

@<SCITEGIC>MOL_PROPERTY
Probability
SciTegic.value.DoubleValue
0.22

@<SCITEGIC>MOL_PROPERTY
Sum Probability
SciTegic.value.DoubleValue
98.30

@<SCITEGIC>MOL_PROPERTY
Delta G
SciTegic.value.DoubleValue
1.845

@<SCITEGIC>MOL_PROPERTY
G
SciTegic.value.DoubleValue
49.207

@<SCITEGIC>MOL_PROPERTY
E
SciTegic.value.DoubleValue
22.533

@<SCITEGIC>MOL_PROPERTY
-TS
SciTegic.value.DoubleValue
26.674

@<SCITEGIC>MOL_PROPERTY
U+W
SciTegic.value.DoubleValue
4.648

@<SCITEGIC>MOL_PROPERTY
U
SciTegic.value.DoubleValue
6.656

@<SCITEGIC>MOL_PROPERTY
W
SciTegic.value.DoubleValue
-2.008

@<SCITEGIC>MOL_PROPERTY
W(PB)
SciTegic.value.DoubleValue
-3.998

@<SCITEGIC>MOL_PROPERTY
W(SA)
SciTegic.value.DoubleValue
1.991

@<SCITEGIC>MOL_PROPERTY
Valence
SciTegic.value.DoubleValue
12.237

@<SCITEGIC>MOL_PROPERTY
Coulomb
SciTegic.value.DoubleValue
-7.547

@<SCITEGIC>MOL_PROPERTY
VdW
SciTegic.value.DoubleValue
1.965

@<SCITEGIC>MOL_PROPERTY
VdW6
SciTegic.value.DoubleValue
-10.135

@<SCITEGIC>MOL_PROPERTY
VdW12
SciTegic.value.DoubleValue
12.100

@<SCITEGIC>MOL_PROPERTY
Bond
SciTegic.value.DoubleValue
0.261

@<SCITEGIC>MOL_PROPERTY
Angle
SciTegic.value.DoubleValue
3.589

@<SCITEGIC>MOL_PROPERTY
Pdih
SciTegic.value.DoubleValue
8.387

@<SCITEGIC>MOL_PROPERTY
Idih
SciTegic.value.DoubleValue
0.000

@<SCITEGIC>MOL_PROPERTY
Tether
SciTegic.value.DoubleValue
0.000

@<TRIPOS>MOLECULE
guest-5_vm2.mol2 : vm2 ligand conformer 42
          22          22           1
SMALL
USER_CHARGES
 
@<TRIPOS>ATOM
       1    C1      20.543154   19.181466   21.212932 C.3        1 MOL1        -0.1685
       2    H1      21.540346   19.531194   21.513110 H          1 MOL1         0.0832
       3    H2      20.645536   18.872066   20.163954 H          1 MOL1         0.0832
       4    C2      19.546700   20.360889   21.294047 C.3        1 MOL1        -0.1685
       5    H3      19.663570   20.964693   20.383915 H          1 MOL1         0.0832
       6    H4      18.509074   20.001090   21.289725 H          1 MOL1         0.0832
       7    C3      19.810784   21.284384   22.507664 C.3        1 MOL1        -0.1685
       8    H5      19.282288   22.233377   22.345350 H          1 MOL1         0.0832
       9    H6      20.878361   21.540075   22.550213 H          1 MOL1         0.0832
      10    C4      19.364856   20.714711   23.876990 C.3        1 MOL1        -0.1761
      11    H7      19.631648   21.439630   24.656788 H          1 MOL1         0.0832
      12    H8      18.269362   20.649705   23.894634 H          1 MOL1         0.0832
      13    C5      19.949142   19.339931   24.278395 C.3        1 MOL1         0.1218
      14    H9      19.591121   19.137713   25.298185 H          1 MOL1         0.0789
      15    C6      19.432543   18.182421   23.390799 C.3        1 MOL1        -0.1761
      16    H10     19.467762   17.254747   23.976491 H          1 MOL1         0.0832
      17    H11     18.367276   18.350378   23.186122 H          1 MOL1         0.0832
      18    C7      20.166802   17.932528   22.046875 C.3        1 MOL1        -0.1685
      19    H12     21.083453   17.358301   22.237659 H          1 MOL1         0.0832
      20    H13     19.531715   17.279009   21.433542 H          1 MOL1         0.0832
      21    O1      21.372021   19.381670   24.299299 O.3        1 MOL1        -0.5509
      22    H14     21.671843   18.452404   24.356111 H          1 MOL1         0.3779
@<TRIPOS>BOND
    1     1     2    1
    2     1     3    1
    3     1     4    1
    4     4     5    1
    5     4     6    1
    6     4     7    1
    7     7     8    1
    8     7     9    1
    9     7    10    1
   10    10    11    1
   11    10    12    1
   12    10    13    1
   13    13    14    1
   14    13    15    1
   15    15    16    1
   16    15    17    1
   17     1    18    1
   18    15    18    1
   19    18    19    1
   20    18    20    1
   21    13    21    1
   22    21    22    1
@<TRIPOS>SUBSTRUCTURE
       1 MOL1            1 RESIDUE      1      MOL     
@<SCITEGIC>MOL_PROPERTY
VM2 Rank
SciTegic.value.IntegerValue
42

@<SCITEGIC>MOL_PROPERTY
Conf_Id
SciTegic.value.IntegerValue
2292

@<SCITEGIC>MOL_PROPERTY
Probability
SciTegic.value.DoubleValue
0.22

@<SCITEGIC>MOL_PROPERTY
Sum Probability
SciTegic.value.DoubleValue
98.52

@<SCITEGIC>MOL_PROPERTY
Delta G
SciTegic.value.DoubleValue
1.850

@<SCITEGIC>MOL_PROPERTY
G
SciTegic.value.DoubleValue
49.212

@<SCITEGIC>MOL_PROPERTY
E
SciTegic.value.DoubleValue
22.538

@<SCITEGIC>MOL_PROPERTY
-TS
SciTegic.value.DoubleValue
26.675

@<SCITEGIC>MOL_PROPERTY
U+W
SciTegic.value.DoubleValue
4.653

@<SCITEGIC>MOL_PROPERTY
U
SciTegic.value.DoubleValue
6.656

@<SCITEGIC>MOL_PROPERTY
W
SciTegic.value.DoubleValue
-2.003

@<SCITEGIC>MOL_PROPERTY
W(PB)
SciTegic.value.DoubleValue
-4.006

@<SCITEGIC>MOL_PROPERTY
W(SA)
SciTegic.value.DoubleValue
2.003

@<SCITEGIC>MOL_PROPERTY
Valence
SciTegic.value.DoubleValue
12.237

@<SCITEGIC>MOL_PROPERTY
Coulomb
SciTegic.value.DoubleValue
-7.546

@<SCITEGIC>MOL_PROPERTY
VdW
SciTegic.value.DoubleValue
1.965

@<SCITEGIC>MOL_PROPERTY
VdW6
SciTegic.value.DoubleValue
-10.135

@<SCITEGIC>MOL_PROPERTY
VdW12
SciTegic.value.DoubleValue
12.100

@<SCITEGIC>MOL_PROPERTY
Bond
SciTegic.value.DoubleValue
0.261

@<SCITEGIC>MOL_PROPERTY
Angle
SciTegic.value.DoubleValue
3.589

@<SCITEGIC>MOL_PROPERTY
Pdih
SciTegic.value.DoubleValue
8.387

@<SCITEGIC>MOL_PROPERTY
Idih
SciTegic.value.DoubleValue
0.000

@<SCITEGIC>MOL_PROPERTY
Tether
SciTegic.value.DoubleValue
0.000

@<TRIPOS>MOLECULE
guest-5_vm2.mol2 : vm2 ligand conformer 43
          22          22           1
SMALL
USER_CHARGES
 
@<TRIPOS>ATOM
       1    C1      20.501304   19.203812   21.201549 C.3        1 MOL1        -0.1685
       2    H1      21.509799   19.329889   21.619169 H          1 MOL1         0.0832
       3    H2      20.637388   18.908943   20.152235 H          1 MOL1         0.0832
       4    C2      19.729612   20.542500   21.221305 C.3        1 MOL1        -0.1685
       5    H3      20.197823   21.227873   20.501827 H          1 MOL1         0.0832
       6    H4      18.705019   20.380842   20.859775 H          1 MOL1         0.0832
       7    C3      19.685905   21.241994   22.597558 C.3        1 MOL1        -0.1685
       8    H5      19.071266   22.146647   22.496366 H          1 MOL1         0.0832
       9    H6      20.691482   21.598178   22.856674 H          1 MOL1         0.0832
      10    C4      19.103406   20.383339   23.752955 C.3        1 MOL1        -0.1761
      11    H7      18.886854   21.055457   24.593286 H          1 MOL1         0.0832
      12    H8      18.133399   19.964617   23.455604 H          1 MOL1         0.0832
      13    C5      20.018848   19.252044   24.287586 C.3        1 MOL1         0.1218
      14    H9      19.626533   18.965566   25.274137 H          1 MOL1         0.0789
      15    C6      20.052979   17.952574   23.443214 C.3        1 MOL1        -0.1761
      16    H10     21.035290   17.478185   23.570637 H          1 MOL1         0.0832
      17    H11     19.332373   17.246501   23.875444 H          1 MOL1         0.0832
      18    C7      19.747641   18.068169   21.928882 C.3        1 MOL1        -0.1685
      19    H12     18.666141   18.180349   21.773661 H          1 MOL1         0.0832
      20    H13     20.015104   17.111987   21.459016 H          1 MOL1         0.0832
      21    O1      21.346305   19.733568   24.473952 O.3        1 MOL1        -0.5509
      22    H14     21.266848   20.588642   24.943239 H          1 MOL1         0.3779
@<TRIPOS>BOND
    1     1     2    1
    2     1     3    1
    3     1     4    1
    4     4     5    1
    5     4     6    1
    6     4     7    1
    7     7     8    1
    8     7     9    1
    9     7    10    1
   10    10    11    1
   11    10    12    1
   12    10    13    1
   13    13    14    1
   14    13    15    1
   15    15    16    1
   16    15    17    1
   17     1    18    1
   18    15    18    1
   19    18    19    1
   20    18    20    1
   21    13    21    1
   22    21    22    1
@<TRIPOS>SUBSTRUCTURE
       1 MOL1            1 RESIDUE      1      MOL     
@<SCITEGIC>MOL_PROPERTY
VM2 Rank
SciTegic.value.IntegerValue
43

@<SCITEGIC>MOL_PROPERTY
Conf_Id
SciTegic.value.IntegerValue
2395

@<SCITEGIC>MOL_PROPERTY
Probability
SciTegic.value.DoubleValue
0.20

@<SCITEGIC>MOL_PROPERTY
Sum Probability
SciTegic.value.DoubleValue
98.72

@<SCITEGIC>MOL_PROPERTY
Delta G
SciTegic.value.DoubleValue
1.898

@<SCITEGIC>MOL_PROPERTY
G
SciTegic.value.DoubleValue
49.260

@<SCITEGIC>MOL_PROPERTY
E
SciTegic.value.DoubleValue
22.618

@<SCITEGIC>MOL_PROPERTY
-TS
SciTegic.value.DoubleValue
26.642

@<SCITEGIC>MOL_PROPERTY
U+W
SciTegic.value.DoubleValue
4.734

@<SCITEGIC>MOL_PROPERTY
U
SciTegic.value.DoubleValue
6.897

@<SCITEGIC>MOL_PROPERTY
W
SciTegic.value.DoubleValue
-2.164

@<SCITEGIC>MOL_PROPERTY
W(PB)
SciTegic.value.DoubleValue
-4.145

@<SCITEGIC>MOL_PROPERTY
W(SA)
SciTegic.value.DoubleValue
1.981

@<SCITEGIC>MOL_PROPERTY
Valence
SciTegic.value.DoubleValue
12.367

@<SCITEGIC>MOL_PROPERTY
Coulomb
SciTegic.value.DoubleValue
-7.745

@<SCITEGIC>MOL_PROPERTY
VdW
SciTegic.value.DoubleValue
2.276

@<SCITEGIC>MOL_PROPERTY
VdW6
SciTegic.value.DoubleValue
-9.828

@<SCITEGIC>MOL_PROPERTY
VdW12
SciTegic.value.DoubleValue
12.104

@<SCITEGIC>MOL_PROPERTY
Bond
SciTegic.value.DoubleValue
0.281

@<SCITEGIC>MOL_PROPERTY
Angle
SciTegic.value.DoubleValue
3.460

@<SCITEGIC>MOL_PROPERTY
Pdih
SciTegic.value.DoubleValue
8.626

@<SCITEGIC>MOL_PROPERTY
Idih
SciTegic.value.DoubleValue
0.000

@<SCITEGIC>MOL_PROPERTY
Tether
SciTegic.value.DoubleValue
0.000

@<TRIPOS>MOLECULE
guest-5_vm2.mol2 : vm2 ligand conformer 44
          22          22           1
SMALL
USER_CHARGES
 
@<TRIPOS>ATOM
       1    C1      19.728396   19.002333   21.022373 C.3        1 MOL1        -0.1685
       2    H1      20.565234   19.332619   20.392100 H          1 MOL1         0.0832
       3    H2      19.038498   18.471483   20.352414 H          1 MOL1         0.0832
       4    C2      19.001005   20.235986   21.602877 C.3        1 MOL1        -0.1685
       5    H3      18.511304   20.760481   20.771238 H          1 MOL1         0.0832
       6    H4      18.198763   19.928071   22.287683 H          1 MOL1         0.0832
       7    C3      19.962650   21.224849   22.298646 C.3        1 MOL1        -0.1685
       8    H5      19.551742   22.239207   22.204701 H          1 MOL1         0.0832
       9    H6      20.923484   21.245819   21.766970 H          1 MOL1         0.0832
      10    C4      20.200031   20.948478   23.804325 C.3        1 MOL1        -0.1761
      11    H7      21.027487   21.589606   24.134335 H          1 MOL1         0.0832
      12    H8      19.323610   21.292956   24.369512 H          1 MOL1         0.0832
      13    C5      20.520605   19.492610   24.229100 C.3        1 MOL1         0.1218
      14    H9      21.230606   19.567310   25.065511 H          1 MOL1         0.0789
      15    C6      21.191723   18.604395   23.150044 C.3        1 MOL1        -0.1761
      16    H10     22.000182   19.163326   22.661525 H          1 MOL1         0.0832
      17    H11     21.683706   17.771859   23.669305 H          1 MOL1         0.0832
      18    C7      20.243376   18.000413   22.078886 C.3        1 MOL1        -0.1685
      19    H12     20.782698   17.202056   21.551464 H          1 MOL1         0.0832
      20    H13     19.388455   17.508116   22.560496 H          1 MOL1         0.0832
      21    O1      19.338214   18.868937   24.720750 O.3        1 MOL1        -0.5509
      22    H14     19.572755   17.936416   24.902661 H          1 MOL1         0.3779
@<TRIPOS>BOND
    1     1     2    1
    2     1     3    1
    3     1     4    1
    4     4     5    1
    5     4     6    1
    6     4     7    1
    7     7     8    1
    8     7     9    1
    9     7    10    1
   10    10    11    1
   11    10    12    1
   12    10    13    1
   13    13    14    1
   14    13    15    1
   15    15    16    1
   16    15    17    1
   17     1    18    1
   18    15    18    1
   19    18    19    1
   20    18    20    1
   21    13    21    1
   22    21    22    1
@<TRIPOS>SUBSTRUCTURE
       1 MOL1            1 RESIDUE      1      MOL     
@<SCITEGIC>MOL_PROPERTY
VM2 Rank
SciTegic.value.IntegerValue
44

@<SCITEGIC>MOL_PROPERTY
Conf_Id
SciTegic.value.IntegerValue
251

@<SCITEGIC>MOL_PROPERTY
Probability
SciTegic.value.DoubleValue
0.20

@<SCITEGIC>MOL_PROPERTY
Sum Probability
SciTegic.value.DoubleValue
98.92

@<SCITEGIC>MOL_PROPERTY
Delta G
SciTegic.value.DoubleValue
1.906

@<SCITEGIC>MOL_PROPERTY
G
SciTegic.value.DoubleValue
49.269

@<SCITEGIC>MOL_PROPERTY
E
SciTegic.value.DoubleValue
22.627

@<SCITEGIC>MOL_PROPERTY
-TS
SciTegic.value.DoubleValue
26.642

@<SCITEGIC>MOL_PROPERTY
U+W
SciTegic.value.DoubleValue
4.742

@<SCITEGIC>MOL_PROPERTY
U
SciTegic.value.DoubleValue
6.897

@<SCITEGIC>MOL_PROPERTY
W
SciTegic.value.DoubleValue
-2.155

@<SCITEGIC>MOL_PROPERTY
W(PB)
SciTegic.value.DoubleValue
-4.139

@<SCITEGIC>MOL_PROPERTY
W(SA)
SciTegic.value.DoubleValue
1.985

@<SCITEGIC>MOL_PROPERTY
Valence
SciTegic.value.DoubleValue
12.367

@<SCITEGIC>MOL_PROPERTY
Coulomb
SciTegic.value.DoubleValue
-7.745

@<SCITEGIC>MOL_PROPERTY
VdW
SciTegic.value.DoubleValue
2.276

@<SCITEGIC>MOL_PROPERTY
VdW6
SciTegic.value.DoubleValue
-9.828

@<SCITEGIC>MOL_PROPERTY
VdW12
SciTegic.value.DoubleValue
12.104

@<SCITEGIC>MOL_PROPERTY
Bond
SciTegic.value.DoubleValue
0.281

@<SCITEGIC>MOL_PROPERTY
Angle
SciTegic.value.DoubleValue
3.460

@<SCITEGIC>MOL_PROPERTY
Pdih
SciTegic.value.DoubleValue
8.626

@<SCITEGIC>MOL_PROPERTY
Idih
SciTegic.value.DoubleValue
0.000

@<SCITEGIC>MOL_PROPERTY
Tether
SciTegic.value.DoubleValue
0.000

@<TRIPOS>MOLECULE
guest-5_vm2.mol2 : vm2 ligand conformer 45
          22          22           1
SMALL
USER_CHARGES
 
@<TRIPOS>ATOM
       1    C1      19.349164   18.880925   21.376790 C.3        1 MOL1        -0.1685
       2    H1      19.098441   18.477668   20.386312 H          1 MOL1         0.0832
       3    H2      18.578043   18.508208   22.065135 H          1 MOL1         0.0832
       4    C2      19.302704   20.422881   21.286250 C.3        1 MOL1        -0.1685
       5    H3      20.120497   20.777623   20.644376 H          1 MOL1         0.0832
       6    H4      18.373473   20.716607   20.779435 H          1 MOL1         0.0832
       7    C3      19.362625   21.151364   22.646762 C.3        1 MOL1        -0.1685
       8    H5      18.433075   20.965152   23.200347 H          1 MOL1         0.0832
       9    H6      19.375526   22.231910   22.450119 H          1 MOL1         0.0832
      10    C4      20.593638   20.800958   23.526171 C.3        1 MOL1        -0.1761
      11    H7      21.515434   20.912414   22.940913 H          1 MOL1         0.0832
      12    H8      20.660425   21.552488   24.323375 H          1 MOL1         0.0832
      13    C5      20.570472   19.406622   24.203655 C.3        1 MOL1         0.1218
      14    H9      21.308700   19.436959   25.018128 H          1 MOL1         0.0789
      15    C6      20.970405   18.209667   23.303597 C.3        1 MOL1        -0.1761
      16    H10     22.036560   18.004196   23.464005 H          1 MOL1         0.0832
      17    H11     20.445848   17.313076   23.660224 H          1 MOL1         0.0832
      18    C7      20.742372   18.346976   21.777510 C.3        1 MOL1        -0.1685
      19    H12     21.524274   18.981424   21.338844 H          1 MOL1         0.0832
      20    H13     20.881027   17.354709   21.327207 H          1 MOL1         0.0832
      21    O1      19.294622   19.158607   24.786265 O.3        1 MOL1        -0.5509
      22    H14     19.054073   19.968545   25.280061 H          1 MOL1         0.3779
@<TRIPOS>BOND
    1     1     2    1
    2     1     3    1
    3     1     4    1
    4     4     5    1
    5     4     6    1
    6     4     7    1
    7     7     8    1
    8     7     9    1
    9     7    10    1
   10    10    11    1
   11    10    12    1
   12    10    13    1
   13    13    14    1
   14    13    15    1
   15    15    16    1
   16    15    17    1
   17     1    18    1
   18    15    18    1
   19    18    19    1
   20    18    20    1
   21    13    21    1
   22    21    22    1
@<TRIPOS>SUBSTRUCTURE
       1 MOL1            1 RESIDUE      1      MOL     
@<SCITEGIC>MOL_PROPERTY
VM2 Rank
SciTegic.value.IntegerValue
45

@<SCITEGIC>MOL_PROPERTY
Conf_Id
SciTegic.value.IntegerValue
2215

@<SCITEGIC>MOL_PROPERTY
Probability
SciTegic.value.DoubleValue
0.19

@<SCITEGIC>MOL_PROPERTY
Sum Probability
SciTegic.value.DoubleValue
99.11

@<SCITEGIC>MOL_PROPERTY
Delta G
SciTegic.value.DoubleValue
1.936

@<SCITEGIC>MOL_PROPERTY
G
SciTegic.value.DoubleValue
49.299

@<SCITEGIC>MOL_PROPERTY
E
SciTegic.value.DoubleValue
22.657

@<SCITEGIC>MOL_PROPERTY
-TS
SciTegic.value.DoubleValue
26.642

@<SCITEGIC>MOL_PROPERTY
U+W
SciTegic.value.DoubleValue
4.772

@<SCITEGIC>MOL_PROPERTY
U
SciTegic.value.DoubleValue
6.897

@<SCITEGIC>MOL_PROPERTY
W
SciTegic.value.DoubleValue
-2.125

@<SCITEGIC>MOL_PROPERTY
W(PB)
SciTegic.value.DoubleValue
-4.121

@<SCITEGIC>MOL_PROPERTY
W(SA)
SciTegic.value.DoubleValue
1.996

@<SCITEGIC>MOL_PROPERTY
Valence
SciTegic.value.DoubleValue
12.367

@<SCITEGIC>MOL_PROPERTY
Coulomb
SciTegic.value.DoubleValue
-7.745

@<SCITEGIC>MOL_PROPERTY
VdW
SciTegic.value.DoubleValue
2.276

@<SCITEGIC>MOL_PROPERTY
VdW6
SciTegic.value.DoubleValue
-9.828

@<SCITEGIC>MOL_PROPERTY
VdW12
SciTegic.value.DoubleValue
12.104

@<SCITEGIC>MOL_PROPERTY
Bond
SciTegic.value.DoubleValue
0.281

@<SCITEGIC>MOL_PROPERTY
Angle
SciTegic.value.DoubleValue
3.460

@<SCITEGIC>MOL_PROPERTY
Pdih
SciTegic.value.DoubleValue
8.626

@<SCITEGIC>MOL_PROPERTY
Idih
SciTegic.value.DoubleValue
0.000

@<SCITEGIC>MOL_PROPERTY
Tether
SciTegic.value.DoubleValue
0.000

@<TRIPOS>MOLECULE
guest-5_vm2.mol2 : vm2 ligand conformer 46
          22          22           1
SMALL
USER_CHARGES
 
@<TRIPOS>ATOM
       1    C1      19.746965   19.129115   21.100752 C.3        1 MOL1        -0.1685
       2    H1      18.650221   19.118742   21.157613 H          1 MOL1         0.0832
       3    H2      20.000475   18.894827   20.057949 H          1 MOL1         0.0832
       4    C2      20.304908   20.534629   21.421259 C.3        1 MOL1        -0.1685
       5    H3      21.377055   20.453840   21.646606 H          1 MOL1         0.0832
       6    H4      20.241981   21.158327   20.519309 H          1 MOL1         0.0832
       7    C3      19.598624   21.287363   22.575368 C.3        1 MOL1        -0.1685
       8    H5      18.758892   21.861565   22.161337 H          1 MOL1         0.0832
       9    H6      20.299942   22.032423   22.975235 H          1 MOL1         0.0832
      10    C4      19.057490   20.429244   23.749628 C.3        1 MOL1        -0.1761
      11    H7      18.839078   21.102456   24.588419 H          1 MOL1         0.0832
      12    H8      18.088182   20.002579   23.461762 H          1 MOL1         0.0832
      13    C5      19.963784   19.288377   24.271055 C.3        1 MOL1         0.1218
      14    H9      19.613926   19.047595   25.285291 H          1 MOL1         0.0789
      15    C6      19.827128   17.986539   23.446379 C.3        1 MOL1        -0.1761
      16    H10     20.340528   17.179342   23.984553 H          1 MOL1         0.0832
      17    H11     18.768536   17.696813   23.424631 H          1 MOL1         0.0832
      18    C7      20.361396   18.024736   21.993709 C.3        1 MOL1        -0.1685
      19    H12     21.455051   18.126422   22.005769 H          1 MOL1         0.0832
      20    H13     20.157243   17.049856   21.530711 H          1 MOL1         0.0832
      21    O1      21.325705   19.697997   24.348850 O.3        1 MOL1        -0.5509
      22    H14     21.842074   18.903248   24.590975 H          1 MOL1         0.3779
@<TRIPOS>BOND
    1     1     2    1
    2     1     3    1
    3     1     4    1
    4     4     5    1
    5     4     6    1
    6     4     7    1
    7     7     8    1
    8     7     9    1
    9     7    10    1
   10    10    11    1
   11    10    12    1
   12    10    13    1
   13    13    14    1
   14    13    15    1
   15    15    16    1
   16    15    17    1
   17     1    18    1
   18    15    18    1
   19    18    19    1
   20    18    20    1
   21    13    21    1
   22    21    22    1
@<TRIPOS>SUBSTRUCTURE
       1 MOL1            1 RESIDUE      1      MOL     
@<SCITEGIC>MOL_PROPERTY
VM2 Rank
SciTegic.value.IntegerValue
46

@<SCITEGIC>MOL_PROPERTY
Conf_Id
SciTegic.value.IntegerValue
2548

@<SCITEGIC>MOL_PROPERTY
Probability
SciTegic.value.DoubleValue
0.11

@<SCITEGIC>MOL_PROPERTY
Sum Probability
SciTegic.value.DoubleValue
99.23

@<SCITEGIC>MOL_PROPERTY
Delta G
SciTegic.value.DoubleValue
2.244

@<SCITEGIC>MOL_PROPERTY
G
SciTegic.value.DoubleValue
49.606

@<SCITEGIC>MOL_PROPERTY
E
SciTegic.value.DoubleValue
22.870

@<SCITEGIC>MOL_PROPERTY
-TS
SciTegic.value.DoubleValue
26.736

@<SCITEGIC>MOL_PROPERTY
U+W
SciTegic.value.DoubleValue
4.986

@<SCITEGIC>MOL_PROPERTY
U
SciTegic.value.DoubleValue
7.115

@<SCITEGIC>MOL_PROPERTY
W
SciTegic.value.DoubleValue
-2.129

@<SCITEGIC>MOL_PROPERTY
W(PB)
SciTegic.value.DoubleValue
-4.113

@<SCITEGIC>MOL_PROPERTY
W(SA)
SciTegic.value.DoubleValue
1.984

@<SCITEGIC>MOL_PROPERTY
Valence
SciTegic.value.DoubleValue
12.146

@<SCITEGIC>MOL_PROPERTY
Coulomb
SciTegic.value.DoubleValue
-6.960

@<SCITEGIC>MOL_PROPERTY
VdW
SciTegic.value.DoubleValue
1.928

@<SCITEGIC>MOL_PROPERTY
VdW6
SciTegic.value.DoubleValue
-10.064

@<SCITEGIC>MOL_PROPERTY
VdW12
SciTegic.value.DoubleValue
11.993

@<SCITEGIC>MOL_PROPERTY
Bond
SciTegic.value.DoubleValue
0.260

@<SCITEGIC>MOL_PROPERTY
Angle
SciTegic.value.DoubleValue
3.626

@<SCITEGIC>MOL_PROPERTY
Pdih
SciTegic.value.DoubleValue
8.260

@<SCITEGIC>MOL_PROPERTY
Idih
SciTegic.value.DoubleValue
0.000

@<SCITEGIC>MOL_PROPERTY
Tether
SciTegic.value.DoubleValue
0.000

@<TRIPOS>MOLECULE
guest-5_vm2.mol2 : vm2 ligand conformer 47
          22          22           1
SMALL
USER_CHARGES
 
@<TRIPOS>ATOM
       1    C1      19.974638   19.187716   21.067164 C.3        1 MOL1        -0.1685
       2    H1      19.590211   18.789228   20.118472 H          1 MOL1         0.0832
       3    H2      20.914282   19.701469   20.823617 H          1 MOL1         0.0832
       4    C2      18.928887   20.180474   21.624237 C.3        1 MOL1        -0.1685
       5    H3      18.129501   19.617993   22.125639 H          1 MOL1         0.0832
       6    H4      18.441987   20.695057   20.784829 H          1 MOL1         0.0832
       7    C3      19.477718   21.256240   22.593217 C.3        1 MOL1        -0.1685
       8    H5      18.645794   21.606590   23.219327 H          1 MOL1         0.0832
       9    H6      19.797576   22.128966   22.008137 H          1 MOL1         0.0832
      10    C4      20.655812   20.840632   23.513787 C.3        1 MOL1        -0.1761
      11    H7      21.592069   20.904449   22.944738 H          1 MOL1         0.0832
      12    H8      20.747877   21.593758   24.306763 H          1 MOL1         0.0832
      13    C5      20.577382   19.446305   24.180523 C.3        1 MOL1         0.1218
      14    H9      21.259662   19.471188   25.042455 H          1 MOL1         0.0789
      15    C6      21.084177   18.310082   23.260904 C.3        1 MOL1        -0.1761
      16    H10     22.102672   18.554957   22.932674 H          1 MOL1         0.0832
      17    H11     21.181706   17.395846   23.860436 H          1 MOL1         0.0832
      18    C7      20.224259   17.989455   22.013951 C.3        1 MOL1        -0.1685
      19    H12     19.262691   17.562219   22.329265 H          1 MOL1         0.0832
      20    H13     20.731006   17.197524   21.446068 H          1 MOL1         0.0832
      21    O1      19.263126   19.167097   24.653217 O.3        1 MOL1        -0.5509
      22    H14     19.272031   18.241742   24.970274 H          1 MOL1         0.3779
@<TRIPOS>BOND
    1     1     2    1
    2     1     3    1
    3     1     4    1
    4     4     5    1
    5     4     6    1
    6     4     7    1
    7     7     8    1
    8     7     9    1
    9     7    10    1
   10    10    11    1
   11    10    12    1
   12    10    13    1
   13    13    14    1
   14    13    15    1
   15    15    16    1
   16    15    17    1
   17     1    18    1
   18    15    18    1
   19    18    19    1
   20    18    20    1
   21    13    21    1
   22    21    22    1
@<TRIPOS>SUBSTRUCTURE
       1 MOL1            1 RESIDUE      1      MOL     
@<SCITEGIC>MOL_PROPERTY
VM2 Rank
SciTegic.value.IntegerValue
47

@<SCITEGIC>MOL_PROPERTY
Conf_Id
SciTegic.value.IntegerValue
279

@<SCITEGIC>MOL_PROPERTY
Probability
SciTegic.value.DoubleValue
0.11

@<SCITEGIC>MOL_PROPERTY
Sum Probability
SciTegic.value.DoubleValue
99.34

@<SCITEGIC>MOL_PROPERTY
Delta G
SciTegic.value.DoubleValue
2.250

@<SCITEGIC>MOL_PROPERTY
G
SciTegic.value.DoubleValue
49.612

@<SCITEGIC>MOL_PROPERTY
E
SciTegic.value.DoubleValue
22.877

@<SCITEGIC>MOL_PROPERTY
-TS
SciTegic.value.DoubleValue
26.736

@<SCITEGIC>MOL_PROPERTY
U+W
SciTegic.value.DoubleValue
4.992

@<SCITEGIC>MOL_PROPERTY
U
SciTegic.value.DoubleValue
7.115

@<SCITEGIC>MOL_PROPERTY
W
SciTegic.value.DoubleValue
-2.123

@<SCITEGIC>MOL_PROPERTY
W(PB)
SciTegic.value.DoubleValue
-4.113

@<SCITEGIC>MOL_PROPERTY
W(SA)
SciTegic.value.DoubleValue
1.991

@<SCITEGIC>MOL_PROPERTY
Valence
SciTegic.value.DoubleValue
12.146

@<SCITEGIC>MOL_PROPERTY
Coulomb
SciTegic.value.DoubleValue
-6.960

@<SCITEGIC>MOL_PROPERTY
VdW
SciTegic.value.DoubleValue
1.928

@<SCITEGIC>MOL_PROPERTY
VdW6
SciTegic.value.DoubleValue
-10.064

@<SCITEGIC>MOL_PROPERTY
VdW12
SciTegic.value.DoubleValue
11.993

@<SCITEGIC>MOL_PROPERTY
Bond
SciTegic.value.DoubleValue
0.260

@<SCITEGIC>MOL_PROPERTY
Angle
SciTegic.value.DoubleValue
3.626

@<SCITEGIC>MOL_PROPERTY
Pdih
SciTegic.value.DoubleValue
8.260

@<SCITEGIC>MOL_PROPERTY
Idih
SciTegic.value.DoubleValue
0.000

@<SCITEGIC>MOL_PROPERTY
Tether
SciTegic.value.DoubleValue
0.000

@<TRIPOS>MOLECULE
guest-5_vm2.mol2 : vm2 ligand conformer 48
          22          22           1
SMALL
USER_CHARGES
 
@<TRIPOS>ATOM
       1    C1      19.274894   18.900301   21.395258 C.3        1 MOL1        -0.1685
       2    H1      19.031305   18.513624   20.396450 H          1 MOL1         0.0832
       3    H2      18.345366   18.818719   21.975023 H          1 MOL1         0.0832
       4    C2      19.668508   20.390340   21.275493 C.3        1 MOL1        -0.1685
       5    H3      20.717246   20.496755   20.967259 H          1 MOL1         0.0832
       6    H4      19.067511   20.834784   20.470592 H          1 MOL1         0.0832
       7    C3      19.384791   21.188935   22.570213 C.3        1 MOL1        -0.1685
       8    H5      18.363998   20.978427   22.916959 H          1 MOL1         0.0832
       9    H6      19.403145   22.260291   22.328766 H          1 MOL1         0.0832
      10    C4      20.386971   20.940552   23.723944 C.3        1 MOL1        -0.1761
      11    H7      20.079760   21.544534   24.587428 H          1 MOL1         0.0832
      12    H8      21.368924   21.331678   23.427601 H          1 MOL1         0.0832
      13    C5      20.561257   19.475348   24.189080 C.3        1 MOL1         0.1218
      14    H9      21.236269   19.506724   25.056505 H          1 MOL1         0.0789
      15    C6      21.247582   18.583978   23.126418 C.3        1 MOL1        -0.1761
      16    H10     22.052043   19.160686   22.652374 H          1 MOL1         0.0832
      17    H11     21.751270   17.759020   23.646255 H          1 MOL1         0.0832
      18    C7      20.346371   17.973677   22.020328 C.3        1 MOL1        -0.1685
      19    H12     19.836474   17.089637   22.426938 H          1 MOL1         0.0832
      20    H13     20.999487   17.598770   21.220852 H          1 MOL1         0.0832
      21    O1      19.315627   18.924868   24.606266 O.3        1 MOL1        -0.5509
      22    H14     18.903607   19.585582   25.198367 H          1 MOL1         0.3779
@<TRIPOS>BOND
    1     1     2    1
    2     1     3    1
    3     1     4    1
    4     4     5    1
    5     4     6    1
    6     4     7    1
    7     7     8    1
    8     7     9    1
    9     7    10    1
   10    10    11    1
   11    10    12    1
   12    10    13    1
   13    13    14    1
   14    13    15    1
   15    15    16    1
   16    15    17    1
   17     1    18    1
   18    15    18    1
   19    18    19    1
   20    18    20    1
   21    13    21    1
   22    21    22    1
@<TRIPOS>SUBSTRUCTURE
       1 MOL1            1 RESIDUE      1      MOL     
@<SCITEGIC>MOL_PROPERTY
VM2 Rank
SciTegic.value.IntegerValue
48

@<SCITEGIC>MOL_PROPERTY
Conf_Id
SciTegic.value.IntegerValue
1353

@<SCITEGIC>MOL_PROPERTY
Probability
SciTegic.value.DoubleValue
0.10

@<SCITEGIC>MOL_PROPERTY
Sum Probability
SciTegic.value.DoubleValue
99.44

@<SCITEGIC>MOL_PROPERTY
Delta G
SciTegic.value.DoubleValue
2.298

@<SCITEGIC>MOL_PROPERTY
G
SciTegic.value.DoubleValue
49.661

@<SCITEGIC>MOL_PROPERTY
E
SciTegic.value.DoubleValue
22.925

@<SCITEGIC>MOL_PROPERTY
-TS
SciTegic.value.DoubleValue
26.736

@<SCITEGIC>MOL_PROPERTY
U+W
SciTegic.value.DoubleValue
5.040

@<SCITEGIC>MOL_PROPERTY
U
SciTegic.value.DoubleValue
7.115

@<SCITEGIC>MOL_PROPERTY
W
SciTegic.value.DoubleValue
-2.075

@<SCITEGIC>MOL_PROPERTY
W(PB)
SciTegic.value.DoubleValue
-4.071

@<SCITEGIC>MOL_PROPERTY
W(SA)
SciTegic.value.DoubleValue
1.997

@<SCITEGIC>MOL_PROPERTY
Valence
SciTegic.value.DoubleValue
12.146

@<SCITEGIC>MOL_PROPERTY
Coulomb
SciTegic.value.DoubleValue
-6.960

@<SCITEGIC>MOL_PROPERTY
VdW
SciTegic.value.DoubleValue
1.928

@<SCITEGIC>MOL_PROPERTY
VdW6
SciTegic.value.DoubleValue
-10.064

@<SCITEGIC>MOL_PROPERTY
VdW12
SciTegic.value.DoubleValue
11.993

@<SCITEGIC>MOL_PROPERTY
Bond
SciTegic.value.DoubleValue
0.260

@<SCITEGIC>MOL_PROPERTY
Angle
SciTegic.value.DoubleValue
3.626

@<SCITEGIC>MOL_PROPERTY
Pdih
SciTegic.value.DoubleValue
8.260

@<SCITEGIC>MOL_PROPERTY
Idih
SciTegic.value.DoubleValue
0.000

@<SCITEGIC>MOL_PROPERTY
Tether
SciTegic.value.DoubleValue
0.000

@<TRIPOS>MOLECULE
guest-5_vm2.mol2 : vm2 ligand conformer 49
          22          22           1
SMALL
USER_CHARGES
 
@<TRIPOS>ATOM
       1    C1      19.728792   19.003141   21.020602 C.3        1 MOL1        -0.1685
       2    H1      20.566276   19.332501   20.390742 H          1 MOL1         0.0832
       3    H2      19.039138   18.471757   20.350850 H          1 MOL1         0.0832
       4    C2      19.001278   20.236983   21.600038 C.3        1 MOL1        -0.1685
       5    H3      18.513435   20.762075   20.767671 H          1 MOL1         0.0832
       6    H4      18.197726   19.929007   22.283143 H          1 MOL1         0.0832
       7    C3      19.963277   21.224191   22.297175 C.3        1 MOL1        -0.1685
       8    H5      19.554629   22.239354   22.201629 H          1 MOL1         0.0832
       9    H6      20.925032   21.243063   21.767000 H          1 MOL1         0.0832
      10    C4      20.198101   20.948339   23.803053 C.3        1 MOL1        -0.1761
      11    H7      21.027512   21.588540   24.130596 H          1 MOL1         0.0832
      12    H8      19.323146   21.300498   24.365108 H          1 MOL1         0.0832
      13    C5      20.520161   19.492478   24.229527 C.3        1 MOL1         0.1218
      14    H9      21.233201   19.568865   25.063204 H          1 MOL1         0.0789
      15    C6      21.191324   18.604099   23.150478 C.3        1 MOL1        -0.1761
      16    H10     22.004602   19.158286   22.664976 H          1 MOL1         0.0832
      17    H11     21.673420   17.768528   23.673917 H          1 MOL1         0.0832
      18    C7      20.242403   18.002287   22.078768 C.3        1 MOL1        -0.1685
      19    H12     20.778669   17.200433   21.553817 H          1 MOL1         0.0832
      20    H13     19.387493   17.514382   22.565560 H          1 MOL1         0.0832
      21    O1      19.340664   18.866483   24.727359 O.3        1 MOL1        -0.5509
      22    H14     18.985136   19.449980   25.428101 H          1 MOL1         0.3779
@<TRIPOS>BOND
    1     1     2    1
    2     1     3    1
    3     1     4    1
    4     4     5    1
    5     4     6    1
    6     4     7    1
    7     7     8    1
    8     7     9    1
    9     7    10    1
   10    10    11    1
   11    10    12    1
   12    10    13    1
   13    13    14    1
   14    13    15    1
   15    15    16    1
   16    15    17    1
   17     1    18    1
   18    15    18    1
   19    18    19    1
   20    18    20    1
   21    13    21    1
   22    21    22    1
@<TRIPOS>SUBSTRUCTURE
       1 MOL1            1 RESIDUE      1      MOL     
@<SCITEGIC>MOL_PROPERTY
VM2 Rank
SciTegic.value.IntegerValue
49

@<SCITEGIC>MOL_PROPERTY
Conf_Id
SciTegic.value.IntegerValue
140

@<SCITEGIC>MOL_PROPERTY
Probability
SciTegic.value.DoubleValue
0.09

@<SCITEGIC>MOL_PROPERTY
Sum Probability
SciTegic.value.DoubleValue
99.53

@<SCITEGIC>MOL_PROPERTY
Delta G
SciTegic.value.DoubleValue
2.378

@<SCITEGIC>MOL_PROPERTY
G
SciTegic.value.DoubleValue
49.741

@<SCITEGIC>MOL_PROPERTY
E
SciTegic.value.DoubleValue
23.113

@<SCITEGIC>MOL_PROPERTY
-TS
SciTegic.value.DoubleValue
26.627

@<SCITEGIC>MOL_PROPERTY
U+W
SciTegic.value.DoubleValue
5.228

@<SCITEGIC>MOL_PROPERTY
U
SciTegic.value.DoubleValue
7.482

@<SCITEGIC>MOL_PROPERTY
W
SciTegic.value.DoubleValue
-2.254

@<SCITEGIC>MOL_PROPERTY
W(PB)
SciTegic.value.DoubleValue
-4.248

@<SCITEGIC>MOL_PROPERTY
W(SA)
SciTegic.value.DoubleValue
1.995

@<SCITEGIC>MOL_PROPERTY
Valence
SciTegic.value.DoubleValue
12.309

@<SCITEGIC>MOL_PROPERTY
Coulomb
SciTegic.value.DoubleValue
-7.084

@<SCITEGIC>MOL_PROPERTY
VdW
SciTegic.value.DoubleValue
2.257

@<SCITEGIC>MOL_PROPERTY
VdW6
SciTegic.value.DoubleValue
-9.771

@<SCITEGIC>MOL_PROPERTY
VdW12
SciTegic.value.DoubleValue
12.028

@<SCITEGIC>MOL_PROPERTY
Bond
SciTegic.value.DoubleValue
0.284

@<SCITEGIC>MOL_PROPERTY
Angle
SciTegic.value.DoubleValue
3.491

@<SCITEGIC>MOL_PROPERTY
Pdih
SciTegic.value.DoubleValue
8.534

@<SCITEGIC>MOL_PROPERTY
Idih
SciTegic.value.DoubleValue
0.000

@<SCITEGIC>MOL_PROPERTY
Tether
SciTegic.value.DoubleValue
0.000

@<TRIPOS>MOLECULE
guest-5_vm2.mol2 : vm2 ligand conformer 50
          22          22           1
SMALL
USER_CHARGES
 
@<TRIPOS>ATOM
       1    C1      19.349868   18.881394   21.373573 C.3        1 MOL1        -0.1685
       2    H1      19.101142   18.479011   20.382224 H          1 MOL1         0.0832
       3    H2      18.577409   18.508300   22.060075 H          1 MOL1         0.0832
       4    C2      19.303250   20.423237   21.284476 C.3        1 MOL1        -0.1685
       5    H3      20.121197   20.779233   20.643532 H          1 MOL1         0.0832
       6    H4      18.373993   20.717394   20.778005 H          1 MOL1         0.0832
       7    C3      19.362385   21.149316   22.646288 C.3        1 MOL1        -0.1685
       8    H5      18.435556   20.957584   23.203169 H          1 MOL1         0.0832
       9    H6      19.370964   22.230407   22.453173 H          1 MOL1         0.0832
      10    C4      20.592865   20.800814   23.526998 C.3        1 MOL1        -0.1761
      11    H7      21.516812   20.917878   22.946589 H          1 MOL1         0.0832
      12    H8      20.649839   21.548312   24.328610 H          1 MOL1         0.0832
      13    C5      20.569977   19.406158   24.204084 C.3        1 MOL1         0.1218
      14    H9      21.311303   19.437497   25.015705 H          1 MOL1         0.0789
      15    C6      20.968751   18.209291   23.302074 C.3        1 MOL1        -0.1761
      16    H10     22.035890   18.006491   23.460653 H          1 MOL1         0.0832
      17    H11     20.449068   17.308070   23.653077 H          1 MOL1         0.0832
      18    C7      20.742764   18.348685   21.776164 C.3        1 MOL1        -0.1685
      19    H12     20.883825   17.357545   21.324035 H          1 MOL1         0.0832
      20    H13     21.524506   18.985054   21.339896 H          1 MOL1         0.0832
      21    O1      19.296141   19.159106   24.793343 O.3        1 MOL1        -0.5509
      22    H14     19.353801   18.288496   25.236766 H          1 MOL1         0.3779
@<TRIPOS>BOND
    1     1     2    1
    2     1     3    1
    3     1     4    1
    4     4     5    1
    5     4     6    1
    6     4     7    1
    7     7     8    1
    8     7     9    1
    9     7    10    1
   10    10    11    1
   11    10    12    1
   12    10    13    1
   13    13    14    1
   14    13    15    1
   15    15    16    1
   16    15    17    1
   17     1    18    1
   18    15    18    1
   19    18    19    1
   20    18    20    1
   21    13    21    1
   22    21    22    1
@<TRIPOS>SUBSTRUCTURE
       1 MOL1            1 RESIDUE      1      MOL     
@<SCITEGIC>MOL_PROPERTY
VM2 Rank
SciTegic.value.IntegerValue
50

@<SCITEGIC>MOL_PROPERTY
Conf_Id
SciTegic.value.IntegerValue
172

@<SCITEGIC>MOL_PROPERTY
Probability
SciTegic.value.DoubleValue
0.09

@<SCITEGIC>MOL_PROPERTY
Sum Probability
SciTegic.value.DoubleValue
99.62

@<SCITEGIC>MOL_PROPERTY
Delta G
SciTegic.value.DoubleValue
2.401

@<SCITEGIC>MOL_PROPERTY
G
SciTegic.value.DoubleValue
49.763

@<SCITEGIC>MOL_PROPERTY
E
SciTegic.value.DoubleValue
23.136

@<SCITEGIC>MOL_PROPERTY
-TS
SciTegic.value.DoubleValue
26.627

@<SCITEGIC>MOL_PROPERTY
U+W
SciTegic.value.DoubleValue
5.252

@<SCITEGIC>MOL_PROPERTY
U
SciTegic.value.DoubleValue
7.482

@<SCITEGIC>MOL_PROPERTY
W
SciTegic.value.DoubleValue
-2.231

@<SCITEGIC>MOL_PROPERTY
W(PB)
SciTegic.value.DoubleValue
-4.220

@<SCITEGIC>MOL_PROPERTY
W(SA)
SciTegic.value.DoubleValue
1.990

@<SCITEGIC>MOL_PROPERTY
Valence
SciTegic.value.DoubleValue
12.309

@<SCITEGIC>MOL_PROPERTY
Coulomb
SciTegic.value.DoubleValue
-7.084

@<SCITEGIC>MOL_PROPERTY
VdW
SciTegic.value.DoubleValue
2.257

@<SCITEGIC>MOL_PROPERTY
VdW6
SciTegic.value.DoubleValue
-9.770

@<SCITEGIC>MOL_PROPERTY
VdW12
SciTegic.value.DoubleValue
12.028

@<SCITEGIC>MOL_PROPERTY
Bond
SciTegic.value.DoubleValue
0.284

@<SCITEGIC>MOL_PROPERTY
Angle
SciTegic.value.DoubleValue
3.491

@<SCITEGIC>MOL_PROPERTY
Pdih
SciTegic.value.DoubleValue
8.534

@<SCITEGIC>MOL_PROPERTY
Idih
SciTegic.value.DoubleValue
0.000

@<SCITEGIC>MOL_PROPERTY
Tether
SciTegic.value.DoubleValue
0.000

@<TRIPOS>MOLECULE
guest-5_vm2.mol2 : vm2 ligand conformer 51
          22          22           1
SMALL
USER_CHARGES
 
@<TRIPOS>ATOM
       1    C1      20.667900   19.230443   21.302715 C.3        1 MOL1        -0.1685
       2    H1      21.582845   19.574607   21.801025 H          1 MOL1         0.0832
       3    H2      20.995816   18.888545   20.311577 H          1 MOL1         0.0832
       4    C2      19.696057   20.423182   21.115562 C.3        1 MOL1        -0.1685
       5    H3      20.212709   21.178254   20.507412 H          1 MOL1         0.0832
       6    H4      18.831580   20.102187   20.518646 H          1 MOL1         0.0832
       7    C3      19.192694   21.111430   22.415043 C.3        1 MOL1        -0.1685
       8    H5      18.153216   20.819721   22.614096 H          1 MOL1         0.0832
       9    H6      19.153270   22.194441   22.235074 H          1 MOL1         0.0832
      10    C4      20.056627   20.849169   23.676905 C.3        1 MOL1        -0.1761
      11    H7      21.103487   21.094778   23.455912 H          1 MOL1         0.0832
      12    H8      19.754571   21.562707   24.454332 H          1 MOL1         0.0832
      13    C5      19.944069   19.422574   24.285086 C.3        1 MOL1         0.1218
      14    H9      19.306246   19.498148   25.177483 H          1 MOL1         0.0789
      15    C6      19.311891   18.344383   23.369840 C.3        1 MOL1        -0.1761
      16    H10     19.202364   17.418463   23.949560 H          1 MOL1         0.0832
      17    H11     18.285817   18.639375   23.119859 H          1 MOL1         0.0832
      18    C7      20.081885   18.017087   22.063666 C.3        1 MOL1        -0.1685
      19    H12     20.901726   17.323084   22.293585 H          1 MOL1         0.0832
      20    H13     19.406111   17.468118   21.393869 H          1 MOL1         0.0832
      21    O1      21.234878   18.979732   24.678182 O.3        1 MOL1        -0.5509
      22    H14     21.700570   18.776667   23.841901 H          1 MOL1         0.3779
@<TRIPOS>BOND
    1     1     2    1
    2     1     3    1
    3     1     4    1
    4     4     5    1
    5     4     6    1
    6     4     7    1
    7     7     8    1
    8     7     9    1
    9     7    10    1
   10    10    11    1
   11    10    12    1
   12    10    13    1
   13    13    14    1
   14    13    15    1
   15    15    16    1
   16    15    17    1
   17     1    18    1
   18    15    18    1
   19    18    19    1
   20    18    20    1
   21    13    21    1
   22    21    22    1
@<TRIPOS>SUBSTRUCTURE
       1 MOL1            1 RESIDUE      1      MOL     
@<SCITEGIC>MOL_PROPERTY
VM2 Rank
SciTegic.value.IntegerValue
51

@<SCITEGIC>MOL_PROPERTY
Conf_Id
SciTegic.value.IntegerValue
2533

@<SCITEGIC>MOL_PROPERTY
Probability
SciTegic.value.DoubleValue
0.04

@<SCITEGIC>MOL_PROPERTY
Sum Probability
SciTegic.value.DoubleValue
99.66

@<SCITEGIC>MOL_PROPERTY
Delta G
SciTegic.value.DoubleValue
2.831

@<SCITEGIC>MOL_PROPERTY
G
SciTegic.value.DoubleValue
50.194

@<SCITEGIC>MOL_PROPERTY
E
SciTegic.value.DoubleValue
23.567

@<SCITEGIC>MOL_PROPERTY
-TS
SciTegic.value.DoubleValue
26.626

@<SCITEGIC>MOL_PROPERTY
U+W
SciTegic.value.DoubleValue
5.682

@<SCITEGIC>MOL_PROPERTY
U
SciTegic.value.DoubleValue
7.208

@<SCITEGIC>MOL_PROPERTY
W
SciTegic.value.DoubleValue
-1.526

@<SCITEGIC>MOL_PROPERTY
W(PB)
SciTegic.value.DoubleValue
-3.516

@<SCITEGIC>MOL_PROPERTY
W(SA)
SciTegic.value.DoubleValue
1.990

@<SCITEGIC>MOL_PROPERTY
Valence
SciTegic.value.DoubleValue
13.629

@<SCITEGIC>MOL_PROPERTY
Coulomb
SciTegic.value.DoubleValue
-9.916

@<SCITEGIC>MOL_PROPERTY
VdW
SciTegic.value.DoubleValue
3.495

@<SCITEGIC>MOL_PROPERTY
VdW6
SciTegic.value.DoubleValue
-10.513

@<SCITEGIC>MOL_PROPERTY
VdW12
SciTegic.value.DoubleValue
14.008

@<SCITEGIC>MOL_PROPERTY
Bond
SciTegic.value.DoubleValue
0.431

@<SCITEGIC>MOL_PROPERTY
Angle
SciTegic.value.DoubleValue
3.722

@<SCITEGIC>MOL_PROPERTY
Pdih
SciTegic.value.DoubleValue
9.476

@<SCITEGIC>MOL_PROPERTY
Idih
SciTegic.value.DoubleValue
0.000

@<SCITEGIC>MOL_PROPERTY
Tether
SciTegic.value.DoubleValue
0.000

@<TRIPOS>MOLECULE
guest-5_vm2.mol2 : vm2 ligand conformer 52
          22          22           1
SMALL
USER_CHARGES
 
@<TRIPOS>ATOM
       1    C1      19.887523   19.199965   20.916537 C.3        1 MOL1        -0.1685
       2    H1      18.927530   19.381482   20.414408 H          1 MOL1         0.0832
       3    H2      20.582615   18.889299   20.124551 H          1 MOL1         0.0832
       4    C2      20.420843   20.528537   21.510338 C.3        1 MOL1        -0.1685
       5    H3      21.429357   20.373838   21.913892 H          1 MOL1         0.0832
       6    H4      20.550095   21.249689   20.691795 H          1 MOL1         0.0832
       7    C3      19.519204   21.176539   22.588222 C.3        1 MOL1        -0.1685
       8    H5      18.656721   21.646735   22.096591 H          1 MOL1         0.0832
       9    H6      20.077123   21.997098   23.059442 H          1 MOL1         0.0832
      10    C4      18.989952   20.222842   23.691154 C.3        1 MOL1        -0.1761
      11    H7      18.619623   20.830552   24.527181 H          1 MOL1         0.0832
      12    H8      18.104749   19.694571   23.317410 H          1 MOL1         0.0832
      13    C5      20.002742   19.191064   24.247492 C.3        1 MOL1         0.1218
      14    H9      19.486995   18.633815   25.042717 H          1 MOL1         0.0789
      15    C6      20.539548   18.147651   23.227272 C.3        1 MOL1        -0.1761
      16    H10     21.591428   18.347851   22.985305 H          1 MOL1         0.0832
      17    H11     20.543218   17.170627   23.727451 H          1 MOL1         0.0832
      18    C7      19.728330   18.016290   21.911170 C.3        1 MOL1        -0.1685
      19    H12     20.037166   17.095064   21.398514 H          1 MOL1         0.0832
      20    H13     18.666687   17.866406   22.147141 H          1 MOL1         0.0832
      21    O1      21.097858   19.895112   24.814815 O.3        1 MOL1        -0.5509
      22    H14     21.413093   20.490936   24.105523 H          1 MOL1         0.3779
@<TRIPOS>BOND
    1     1     2    1
    2     1     3    1
    3     1     4    1
    4     4     5    1
    5     4     6    1
    6     4     7    1
    7     7     8    1
    8     7     9    1
    9     7    10    1
   10    10    11    1
   11    10    12    1
   12    10    13    1
   13    13    14    1
   14    13    15    1
   15    15    16    1
   16    15    17    1
   17     1    18    1
   18    15    18    1
   19    18    19    1
   20    18    20    1
   21    13    21    1
   22    21    22    1
@<TRIPOS>SUBSTRUCTURE
       1 MOL1            1 RESIDUE      1      MOL     
@<SCITEGIC>MOL_PROPERTY
VM2 Rank
SciTegic.value.IntegerValue
52

@<SCITEGIC>MOL_PROPERTY
Conf_Id
SciTegic.value.IntegerValue
1022

@<SCITEGIC>MOL_PROPERTY
Probability
SciTegic.value.DoubleValue
0.04

@<SCITEGIC>MOL_PROPERTY
Sum Probability
SciTegic.value.DoubleValue
99.70

@<SCITEGIC>MOL_PROPERTY
Delta G
SciTegic.value.DoubleValue
2.839

@<SCITEGIC>MOL_PROPERTY
G
SciTegic.value.DoubleValue
50.201

@<SCITEGIC>MOL_PROPERTY
E
SciTegic.value.DoubleValue
23.575

@<SCITEGIC>MOL_PROPERTY
-TS
SciTegic.value.DoubleValue
26.626

@<SCITEGIC>MOL_PROPERTY
U+W
SciTegic.value.DoubleValue
5.690

@<SCITEGIC>MOL_PROPERTY
U
SciTegic.value.DoubleValue
7.208

@<SCITEGIC>MOL_PROPERTY
W
SciTegic.value.DoubleValue
-1.518

@<SCITEGIC>MOL_PROPERTY
W(PB)
SciTegic.value.DoubleValue
-3.531

@<SCITEGIC>MOL_PROPERTY
W(SA)
SciTegic.value.DoubleValue
2.013

@<SCITEGIC>MOL_PROPERTY
Valence
SciTegic.value.DoubleValue
13.629

@<SCITEGIC>MOL_PROPERTY
Coulomb
SciTegic.value.DoubleValue
-9.916

@<SCITEGIC>MOL_PROPERTY
VdW
SciTegic.value.DoubleValue
3.495

@<SCITEGIC>MOL_PROPERTY
VdW6
SciTegic.value.DoubleValue
-10.513

@<SCITEGIC>MOL_PROPERTY
VdW12
SciTegic.value.DoubleValue
14.008

@<SCITEGIC>MOL_PROPERTY
Bond
SciTegic.value.DoubleValue
0.431

@<SCITEGIC>MOL_PROPERTY
Angle
SciTegic.value.DoubleValue
3.722

@<SCITEGIC>MOL_PROPERTY
Pdih
SciTegic.value.DoubleValue
9.476

@<SCITEGIC>MOL_PROPERTY
Idih
SciTegic.value.DoubleValue
0.000

@<SCITEGIC>MOL_PROPERTY
Tether
SciTegic.value.DoubleValue
0.000

@<TRIPOS>MOLECULE
guest-5_vm2.mol2 : vm2 ligand conformer 53
          22          22           1
SMALL
USER_CHARGES
 
@<TRIPOS>ATOM
       1    C1      19.874838   19.196220   20.918150 C.3        1 MOL1        -0.1685
       2    H1      20.452054   19.821906   20.223882 H          1 MOL1         0.0832
       3    H2      19.288461   18.515107   20.286363 H          1 MOL1         0.0832
       4    C2      18.874038   20.081522   21.703492 C.3        1 MOL1        -0.1685
       5    H3      18.202883   20.571344   20.984879 H          1 MOL1         0.0832
       6    H4      18.220438   19.446552   22.314645 H          1 MOL1         0.0832
       7    C3      19.517300   21.175990   22.588390 C.3        1 MOL1        -0.1685
       8    H5      18.735536   21.609645   23.226692 H          1 MOL1         0.0832
       9    H6      19.865528   21.995831   21.945534 H          1 MOL1         0.0832
      10    C4      20.702983   20.717897   23.477447 C.3        1 MOL1        -0.1761
      11    H7      21.621590   20.710890   22.878741 H          1 MOL1         0.0832
      12    H8      20.876709   21.482852   24.245601 H          1 MOL1         0.0832
      13    C5      20.541640   19.346822   24.180263 C.3        1 MOL1         0.1218
      14    H9      21.437907   19.197689   24.799429 H          1 MOL1         0.0789
      15    C6      20.418870   18.112723   23.242361 C.3        1 MOL1        -0.1761
      16    H10     21.043427   17.315201   23.665039 H          1 MOL1         0.0832
      17    H11     19.396511   17.713252   23.259299 H          1 MOL1         0.0832
      18    C7      20.853904   18.341648   21.770697 C.3        1 MOL1        -0.1685
      19    H12     21.856426   18.788537   21.748994 H          1 MOL1         0.0832
      20    H13     20.968974   17.364398   21.282236 H          1 MOL1         0.0832
      21    O1      19.402425   19.405178   25.026200 O.3        1 MOL1        -0.5509
      22    H14     18.669713   19.698056   24.447559 H          1 MOL1         0.3779
@<TRIPOS>BOND
    1     1     2    1
    2     1     3    1
    3     1     4    1
    4     4     5    1
    5     4     6    1
    6     4     7    1
    7     7     8    1
    8     7     9    1
    9     7    10    1
   10    10    11    1
   11    10    12    1
   12    10    13    1
   13    13    14    1
   14    13    15    1
   15    15    16    1
   16    15    17    1
   17     1    18    1
   18    15    18    1
   19    18    19    1
   20    18    20    1
   21    13    21    1
   22    21    22    1
@<TRIPOS>SUBSTRUCTURE
       1 MOL1            1 RESIDUE      1      MOL     
@<SCITEGIC>MOL_PROPERTY
VM2 Rank
SciTegic.value.IntegerValue
53

@<SCITEGIC>MOL_PROPERTY
Conf_Id
SciTegic.value.IntegerValue
537

@<SCITEGIC>MOL_PROPERTY
Probability
SciTegic.value.DoubleValue
0.04

@<SCITEGIC>MOL_PROPERTY
Sum Probability
SciTegic.value.DoubleValue
99.74

@<SCITEGIC>MOL_PROPERTY
Delta G
SciTegic.value.DoubleValue
2.851

@<SCITEGIC>MOL_PROPERTY
G
SciTegic.value.DoubleValue
50.214

@<SCITEGIC>MOL_PROPERTY
E
SciTegic.value.DoubleValue
23.587

@<SCITEGIC>MOL_PROPERTY
-TS
SciTegic.value.DoubleValue
26.627

@<SCITEGIC>MOL_PROPERTY
U+W
SciTegic.value.DoubleValue
5.703

@<SCITEGIC>MOL_PROPERTY
U
SciTegic.value.DoubleValue
7.208

@<SCITEGIC>MOL_PROPERTY
W
SciTegic.value.DoubleValue
-1.506

@<SCITEGIC>MOL_PROPERTY
W(PB)
SciTegic.value.DoubleValue
-3.498

@<SCITEGIC>MOL_PROPERTY
W(SA)
SciTegic.value.DoubleValue
1.992

@<SCITEGIC>MOL_PROPERTY
Valence
SciTegic.value.DoubleValue
13.629

@<SCITEGIC>MOL_PROPERTY
Coulomb
SciTegic.value.DoubleValue
-9.916

@<SCITEGIC>MOL_PROPERTY
VdW
SciTegic.value.DoubleValue
3.495

@<SCITEGIC>MOL_PROPERTY
VdW6
SciTegic.value.DoubleValue
-10.513

@<SCITEGIC>MOL_PROPERTY
VdW12
SciTegic.value.DoubleValue
14.008

@<SCITEGIC>MOL_PROPERTY
Bond
SciTegic.value.DoubleValue
0.431

@<SCITEGIC>MOL_PROPERTY
Angle
SciTegic.value.DoubleValue
3.722

@<SCITEGIC>MOL_PROPERTY
Pdih
SciTegic.value.DoubleValue
9.476

@<SCITEGIC>MOL_PROPERTY
Idih
SciTegic.value.DoubleValue
0.000

@<SCITEGIC>MOL_PROPERTY
Tether
SciTegic.value.DoubleValue
0.000

@<TRIPOS>MOLECULE
guest-5_vm2.mol2 : vm2 ligand conformer 54
          22          22           1
SMALL
USER_CHARGES
 
@<TRIPOS>ATOM
       1    C1      19.167543   18.941458   21.502343 C.3        1 MOL1        -0.1685
       2    H1      18.748526   18.455690   20.610584 H          1 MOL1         0.0832
       3    H2      18.347690   18.951475   22.231472 H          1 MOL1         0.0832
       4    C2      19.555582   20.396128   21.134252 C.3        1 MOL1        -0.1685
       5    H3      20.296853   20.384427   20.323667 H          1 MOL1         0.0832
       6    H4      18.663421   20.879851   20.713572 H          1 MOL1         0.0832
       7    C3      20.083145   21.282934   22.296562 C.3        1 MOL1        -0.1685
       8    H5      19.677563   22.295422   22.165317 H          1 MOL1         0.0832
       9    H6      21.171363   21.401030   22.212505 H          1 MOL1         0.0832
      10    C4      19.723115   20.784928   23.721281 C.3        1 MOL1        -0.1761
      11    H7      19.929324   21.596366   24.431079 H          1 MOL1         0.0832
      12    H8      18.639584   20.620189   23.783747 H          1 MOL1         0.0832
      13    C5      20.498426   19.529352   24.211325 C.3        1 MOL1         0.1218
      14    H9      21.267519   19.875916   24.916513 H          1 MOL1         0.0789
      15    C6      21.227762   18.713404   23.114912 C.3        1 MOL1        -0.1761
      16    H10     21.976411   19.350229   22.628785 H          1 MOL1         0.0832
      17    H11     21.810323   17.920790   23.602542 H          1 MOL1         0.0832
      18    C7      20.327769   18.064448   22.030951 C.3        1 MOL1        -0.1685
      19    H12     20.964825   17.768337   21.186474 H          1 MOL1         0.0832
      20    H13     19.904576   17.131029   22.426273 H          1 MOL1         0.0832
      21    O1      19.602660   18.665348   24.895374 O.3        1 MOL1        -0.5509
      22    H14     19.048524   18.265857   24.194795 H          1 MOL1         0.3779
@<TRIPOS>BOND
    1     1     2    1
    2     1     3    1
    3     1     4    1
    4     4     5    1
    5     4     6    1
    6     4     7    1
    7     7     8    1
    8     7     9    1
    9     7    10    1
   10    10    11    1
   11    10    12    1
   12    10    13    1
   13    13    14    1
   14    13    15    1
   15    15    16    1
   16    15    17    1
   17     1    18    1
   18    15    18    1
   19    18    19    1
   20    18    20    1
   21    13    21    1
   22    21    22    1
@<TRIPOS>SUBSTRUCTURE
       1 MOL1            1 RESIDUE      1      MOL     
@<SCITEGIC>MOL_PROPERTY
VM2 Rank
SciTegic.value.IntegerValue
54

@<SCITEGIC>MOL_PROPERTY
Conf_Id
SciTegic.value.IntegerValue
614

@<SCITEGIC>MOL_PROPERTY
Probability
SciTegic.value.DoubleValue
0.04

@<SCITEGIC>MOL_PROPERTY
Sum Probability
SciTegic.value.DoubleValue
99.78

@<SCITEGIC>MOL_PROPERTY
Delta G
SciTegic.value.DoubleValue
2.857

@<SCITEGIC>MOL_PROPERTY
G
SciTegic.value.DoubleValue
50.219

@<SCITEGIC>MOL_PROPERTY
E
SciTegic.value.DoubleValue
23.593

@<SCITEGIC>MOL_PROPERTY
-TS
SciTegic.value.DoubleValue
26.626

@<SCITEGIC>MOL_PROPERTY
U+W
SciTegic.value.DoubleValue
5.708

@<SCITEGIC>MOL_PROPERTY
U
SciTegic.value.DoubleValue
7.208

@<SCITEGIC>MOL_PROPERTY
W
SciTegic.value.DoubleValue
-1.500

@<SCITEGIC>MOL_PROPERTY
W(PB)
SciTegic.value.DoubleValue
-3.490

@<SCITEGIC>MOL_PROPERTY
W(SA)
SciTegic.value.DoubleValue
1.989

@<SCITEGIC>MOL_PROPERTY
Valence
SciTegic.value.DoubleValue
13.629

@<SCITEGIC>MOL_PROPERTY
Coulomb
SciTegic.value.DoubleValue
-9.916

@<SCITEGIC>MOL_PROPERTY
VdW
SciTegic.value.DoubleValue
3.495

@<SCITEGIC>MOL_PROPERTY
VdW6
SciTegic.value.DoubleValue
-10.513

@<SCITEGIC>MOL_PROPERTY
VdW12
SciTegic.value.DoubleValue
14.008

@<SCITEGIC>MOL_PROPERTY
Bond
SciTegic.value.DoubleValue
0.431

@<SCITEGIC>MOL_PROPERTY
Angle
SciTegic.value.DoubleValue
3.722

@<SCITEGIC>MOL_PROPERTY
Pdih
SciTegic.value.DoubleValue
9.476

@<SCITEGIC>MOL_PROPERTY
Idih
SciTegic.value.DoubleValue
0.000

@<SCITEGIC>MOL_PROPERTY
Tether
SciTegic.value.DoubleValue
0.000

@<TRIPOS>MOLECULE
guest-5_vm2.mol2 : vm2 ligand conformer 55
          22          22           1
SMALL
USER_CHARGES
 
@<TRIPOS>ATOM
       1    C1      19.175549   18.952374   21.469841 C.3        1 MOL1        -0.1685
       2    H1      18.775921   18.473879   20.565542 H          1 MOL1         0.0832
       3    H2      18.335229   18.973017   22.175617 H          1 MOL1         0.0832
       4    C2      19.601866   20.401239   21.118075 C.3        1 MOL1        -0.1685
       5    H3      20.391328   20.375475   20.354743 H          1 MOL1         0.0832
       6    H4      18.743221   20.891898   20.639761 H          1 MOL1         0.0832
       7    C3      20.065826   21.291550   22.306310 C.3        1 MOL1        -0.1685
       8    H5      19.627157   22.290424   22.177504 H          1 MOL1         0.0832
       9    H6      21.151301   21.448043   22.252567 H          1 MOL1         0.0832
      10    C4      19.689864   20.763925   23.716593 C.3        1 MOL1        -0.1761
      11    H7      19.847068   21.572266   24.442054 H          1 MOL1         0.0832
      12    H8      18.613272   20.553487   23.752784 H          1 MOL1         0.0832
      13    C5      20.499707   19.531929   24.206856 C.3        1 MOL1         0.1218
      14    H9      21.288280   19.908477   24.874319 H          1 MOL1         0.0789
      15    C6      21.213479   18.710126   23.103252 C.3        1 MOL1        -0.1761
      16    H10     21.948269   19.349198   22.598948 H          1 MOL1         0.0832
      17    H11     21.810906   17.923466   23.581747 H          1 MOL1         0.0832
      18    C7      20.299400   18.053297   22.037723 C.3        1 MOL1        -0.1685
      19    H12     20.930504   17.703536   21.209644 H          1 MOL1         0.0832
      20    H13     19.837341   17.153783   22.466628 H          1 MOL1         0.0832
      21    O1      19.640309   18.673561   24.948350 O.3        1 MOL1        -0.5509
      22    H14     20.169712   17.884449   25.184014 H          1 MOL1         0.3779
@<TRIPOS>BOND
    1     1     2    1
    2     1     3    1
    3     1     4    1
    4     4     5    1
    5     4     6    1
    6     4     7    1
    7     7     8    1
    8     7     9    1
    9     7    10    1
   10    10    11    1
   11    10    12    1
   12    10    13    1
   13    13    14    1
   14    13    15    1
   15    15    16    1
   16    15    17    1
   17     1    18    1
   18    15    18    1
   19    18    19    1
   20    18    20    1
   21    13    21    1
   22    21    22    1
@<TRIPOS>SUBSTRUCTURE
       1 MOL1            1 RESIDUE      1      MOL     
@<SCITEGIC>MOL_PROPERTY
VM2 Rank
SciTegic.value.IntegerValue
55

@<SCITEGIC>MOL_PROPERTY
Conf_Id
SciTegic.value.IntegerValue
112

@<SCITEGIC>MOL_PROPERTY
Probability
SciTegic.value.DoubleValue
0.02

@<SCITEGIC>MOL_PROPERTY
Sum Probability
SciTegic.value.DoubleValue
99.80

@<SCITEGIC>MOL_PROPERTY
Delta G
SciTegic.value.DoubleValue
3.420

@<SCITEGIC>MOL_PROPERTY
G
SciTegic.value.DoubleValue
50.782

@<SCITEGIC>MOL_PROPERTY
E
SciTegic.value.DoubleValue
24.515

@<SCITEGIC>MOL_PROPERTY
-TS
SciTegic.value.DoubleValue
26.268

@<SCITEGIC>MOL_PROPERTY
U+W
SciTegic.value.DoubleValue
6.630

@<SCITEGIC>MOL_PROPERTY
U
SciTegic.value.DoubleValue
8.892

@<SCITEGIC>MOL_PROPERTY
W
SciTegic.value.DoubleValue
-2.262

@<SCITEGIC>MOL_PROPERTY
W(PB)
SciTegic.value.DoubleValue
-4.259

@<SCITEGIC>MOL_PROPERTY
W(SA)
SciTegic.value.DoubleValue
1.996

@<SCITEGIC>MOL_PROPERTY
Valence
SciTegic.value.DoubleValue
13.213

@<SCITEGIC>MOL_PROPERTY
Coulomb
SciTegic.value.DoubleValue
-7.892

@<SCITEGIC>MOL_PROPERTY
VdW
SciTegic.value.DoubleValue
3.571

@<SCITEGIC>MOL_PROPERTY
VdW6
SciTegic.value.DoubleValue
-10.254

@<SCITEGIC>MOL_PROPERTY
VdW12
SciTegic.value.DoubleValue
13.825

@<SCITEGIC>MOL_PROPERTY
Bond
SciTegic.value.DoubleValue
0.437

@<SCITEGIC>MOL_PROPERTY
Angle
SciTegic.value.DoubleValue
3.615

@<SCITEGIC>MOL_PROPERTY
Pdih
SciTegic.value.DoubleValue
9.161

@<SCITEGIC>MOL_PROPERTY
Idih
SciTegic.value.DoubleValue
0.000

@<SCITEGIC>MOL_PROPERTY
Tether
SciTegic.value.DoubleValue
0.000

@<TRIPOS>MOLECULE
guest-5_vm2.mol2 : vm2 ligand conformer 56
          22          22           1
SMALL
USER_CHARGES
 
@<TRIPOS>ATOM
       1    C1      19.912635   19.220139   20.905386 C.3        1 MOL1        -0.1685
       2    H1      20.532232   19.861496   20.264019 H          1 MOL1         0.0832
       3    H2      19.349972   18.571328   20.220363 H          1 MOL1         0.0832
       4    C2      18.885208   20.093374   21.671254 C.3        1 MOL1        -0.1685
       5    H3      18.235494   20.594235   20.940893 H          1 MOL1         0.0832
       6    H4      18.213839   19.451199   22.255682 H          1 MOL1         0.0832
       7    C3      19.496132   21.172331   22.596727 C.3        1 MOL1        -0.1685
       8    H5      18.701951   21.552901   23.253252 H          1 MOL1         0.0832
       9    H6      19.818827   22.026344   21.986097 H          1 MOL1         0.0832
      10    C4      20.694999   20.713883   23.465553 C.3        1 MOL1        -0.1761
      11    H7      21.600189   20.699490   22.846621 H          1 MOL1         0.0832
      12    H8      20.889011   21.482899   24.224291 H          1 MOL1         0.0832
      13    C5      20.544052   19.343811   24.174694 C.3        1 MOL1         0.1218
      14    H9      21.468448   19.186580   24.749077 H          1 MOL1         0.0789
      15    C6      20.371786   18.113713   23.241318 C.3        1 MOL1        -0.1761
      16    H10     20.949003   17.287045   23.674748 H          1 MOL1         0.0832
      17    H11     19.329664   17.769403   23.250091 H          1 MOL1         0.0832
      18    C7      20.835618   18.318746   21.774534 C.3        1 MOL1        -0.1685
      19    H12     21.858744   18.717241   21.767582 H          1 MOL1         0.0832
      20    H13     20.909340   17.335744   21.289722 H          1 MOL1         0.0832
      21    O1      19.445569   19.402004   25.077535 O.3        1 MOL1        -0.5509
      22    H14     19.558967   20.220498   25.602614 H          1 MOL1         0.3779
@<TRIPOS>BOND
    1     1     2    1
    2     1     3    1
    3     1     4    1
    4     4     5    1
    5     4     6    1
    6     4     7    1
    7     7     8    1
    8     7     9    1
    9     7    10    1
   10    10    11    1
   11    10    12    1
   12    10    13    1
   13    13    14    1
   14    13    15    1
   15    15    16    1
   16    15    17    1
   17     1    18    1
   18    15    18    1
   19    18    19    1
   20    18    20    1
   21    13    21    1
   22    21    22    1
@<TRIPOS>SUBSTRUCTURE
       1 MOL1            1 RESIDUE      1      MOL     
@<SCITEGIC>MOL_PROPERTY
VM2 Rank
SciTegic.value.IntegerValue
56

@<SCITEGIC>MOL_PROPERTY
Conf_Id
SciTegic.value.IntegerValue
1955

@<SCITEGIC>MOL_PROPERTY
Probability
SciTegic.value.DoubleValue
0.02

@<SCITEGIC>MOL_PROPERTY
Sum Probability
SciTegic.value.DoubleValue
99.81

@<SCITEGIC>MOL_PROPERTY
Delta G
SciTegic.value.DoubleValue
3.422

@<SCITEGIC>MOL_PROPERTY
G
SciTegic.value.DoubleValue
50.784

@<SCITEGIC>MOL_PROPERTY
E
SciTegic.value.DoubleValue
24.517

@<SCITEGIC>MOL_PROPERTY
-TS
SciTegic.value.DoubleValue
26.267

@<SCITEGIC>MOL_PROPERTY
U+W
SciTegic.value.DoubleValue
6.632

@<SCITEGIC>MOL_PROPERTY
U
SciTegic.value.DoubleValue
8.892

@<SCITEGIC>MOL_PROPERTY
W
SciTegic.value.DoubleValue
-2.260

@<SCITEGIC>MOL_PROPERTY
W(PB)
SciTegic.value.DoubleValue
-4.261

@<SCITEGIC>MOL_PROPERTY
W(SA)
SciTegic.value.DoubleValue
2.002

@<SCITEGIC>MOL_PROPERTY
Valence
SciTegic.value.DoubleValue
13.213

@<SCITEGIC>MOL_PROPERTY
Coulomb
SciTegic.value.DoubleValue
-7.892

@<SCITEGIC>MOL_PROPERTY
VdW
SciTegic.value.DoubleValue
3.571

@<SCITEGIC>MOL_PROPERTY
VdW6
SciTegic.value.DoubleValue
-10.254

@<SCITEGIC>MOL_PROPERTY
VdW12
SciTegic.value.DoubleValue
13.825

@<SCITEGIC>MOL_PROPERTY
Bond
SciTegic.value.DoubleValue
0.437

@<SCITEGIC>MOL_PROPERTY
Angle
SciTegic.value.DoubleValue
3.615

@<SCITEGIC>MOL_PROPERTY
Pdih
SciTegic.value.DoubleValue
9.161

@<SCITEGIC>MOL_PROPERTY
Idih
SciTegic.value.DoubleValue
0.000

@<SCITEGIC>MOL_PROPERTY
Tether
SciTegic.value.DoubleValue
0.000

@<TRIPOS>MOLECULE
guest-5_vm2.mol2 : vm2 ligand conformer 57
          22          22           1
SMALL
USER_CHARGES
 
@<TRIPOS>ATOM
       1    C1      19.846918   19.201220   20.913475 C.3        1 MOL1        -0.1685
       2    H1      20.495669   18.899021   20.080048 H          1 MOL1         0.0832
       3    H2      18.858810   19.382263   20.469114 H          1 MOL1         0.0832
       4    C2      20.408112   20.529315   21.484371 C.3        1 MOL1        -0.1685
       5    H3      21.426636   20.370969   21.861494 H          1 MOL1         0.0832
       6    H4      20.518124   21.247627   20.660755 H          1 MOL1         0.0832
       7    C3      19.549092   21.187504   22.590147 C.3        1 MOL1        -0.1685
       8    H5      18.700967   21.706093   22.123147 H          1 MOL1         0.0832
       9    H6      20.150933   21.968004   23.075113 H          1 MOL1         0.0832
      10    C4      18.996265   20.227607   23.674262 C.3        1 MOL1        -0.1761
      11    H7      18.605228   20.829161   24.504884 H          1 MOL1         0.0832
      12    H8      18.120072   19.703259   23.274267 H          1 MOL1         0.0832
      13    C5      19.994401   19.186493   24.242228 C.3        1 MOL1         0.1218
      14    H9      19.444319   18.607248   24.997892 H          1 MOL1         0.0789
      15    C6      20.568956   18.170085   23.217129 C.3        1 MOL1        -0.1761
      16    H10     21.608456   18.421391   22.970283 H          1 MOL1         0.0832
      17    H11     20.622060   17.193449   23.714908 H          1 MOL1         0.0832
      18    C7      19.751775   18.008584   21.907641 C.3        1 MOL1        -0.1685
      19    H12     18.700033   17.813472   22.155436 H          1 MOL1         0.0832
      20    H13     20.095313   17.102765   21.389718 H          1 MOL1         0.0832
      21    O1      21.070481   19.867192   24.877747 O.3        1 MOL1        -0.5509
      22    H14     20.667672   20.537891   25.466312 H          1 MOL1         0.3779
@<TRIPOS>BOND
    1     1     2    1
    2     1     3    1
    3     1     4    1
    4     4     5    1
    5     4     6    1
    6     4     7    1
    7     7     8    1
    8     7     9    1
    9     7    10    1
   10    10    11    1
   11    10    12    1
   12    10    13    1
   13    13    14    1
   14    13    15    1
   15    15    16    1
   16    15    17    1
   17     1    18    1
   18    15    18    1
   19    18    19    1
   20    18    20    1
   21    13    21    1
   22    21    22    1
@<TRIPOS>SUBSTRUCTURE
       1 MOL1            1 RESIDUE      1      MOL     
@<SCITEGIC>MOL_PROPERTY
VM2 Rank
SciTegic.value.IntegerValue
57

@<SCITEGIC>MOL_PROPERTY
Conf_Id
SciTegic.value.IntegerValue
2583

@<SCITEGIC>MOL_PROPERTY
Probability
SciTegic.value.DoubleValue
0.02

@<SCITEGIC>MOL_PROPERTY
Sum Probability
SciTegic.value.DoubleValue
99.83

@<SCITEGIC>MOL_PROPERTY
Delta G
SciTegic.value.DoubleValue
3.424

@<SCITEGIC>MOL_PROPERTY
G
SciTegic.value.DoubleValue
50.787

@<SCITEGIC>MOL_PROPERTY
E
SciTegic.value.DoubleValue
24.519

@<SCITEGIC>MOL_PROPERTY
-TS
SciTegic.value.DoubleValue
26.268

@<SCITEGIC>MOL_PROPERTY
U+W
SciTegic.value.DoubleValue
6.634

@<SCITEGIC>MOL_PROPERTY
U
SciTegic.value.DoubleValue
8.892

@<SCITEGIC>MOL_PROPERTY
W
SciTegic.value.DoubleValue
-2.258

@<SCITEGIC>MOL_PROPERTY
W(PB)
SciTegic.value.DoubleValue
-4.264

@<SCITEGIC>MOL_PROPERTY
W(SA)
SciTegic.value.DoubleValue
2.005

@<SCITEGIC>MOL_PROPERTY
Valence
SciTegic.value.DoubleValue
13.213

@<SCITEGIC>MOL_PROPERTY
Coulomb
SciTegic.value.DoubleValue
-7.891

@<SCITEGIC>MOL_PROPERTY
VdW
SciTegic.value.DoubleValue
3.571

@<SCITEGIC>MOL_PROPERTY
VdW6
SciTegic.value.DoubleValue
-10.254

@<SCITEGIC>MOL_PROPERTY
VdW12
SciTegic.value.DoubleValue
13.825

@<SCITEGIC>MOL_PROPERTY
Bond
SciTegic.value.DoubleValue
0.437

@<SCITEGIC>MOL_PROPERTY
Angle
SciTegic.value.DoubleValue
3.616

@<SCITEGIC>MOL_PROPERTY
Pdih
SciTegic.value.DoubleValue
9.160

@<SCITEGIC>MOL_PROPERTY
Idih
SciTegic.value.DoubleValue
0.000

@<SCITEGIC>MOL_PROPERTY
Tether
SciTegic.value.DoubleValue
0.000

@<TRIPOS>MOLECULE
guest-5_vm2.mol2 : vm2 ligand conformer 58
          22          22           1
SMALL
USER_CHARGES
 
@<TRIPOS>ATOM
       1    C1      20.656961   19.236507   21.277306 C.3        1 MOL1        -0.1685
       2    H1      21.578289   19.594920   21.754152 H          1 MOL1         0.0832
       3    H2      20.966954   18.894148   20.280757 H          1 MOL1         0.0832
       4    C2      19.659961   20.412468   21.110597 C.3        1 MOL1        -0.1685
       5    H3      20.134751   21.158974   20.459363 H          1 MOL1         0.0832
       6    H4      18.772129   20.065207   20.564933 H          1 MOL1         0.0832
       7    C3      19.211981   21.127590   22.417386 C.3        1 MOL1        -0.1685
       8    H5      18.167047   20.874828   22.640662 H          1 MOL1         0.0832
       9    H6      19.209862   22.210329   22.231801 H          1 MOL1         0.0832
      10    C4      20.089994   20.840840   23.664582 C.3        1 MOL1        -0.1761
      11    H7      21.142284   21.039280   23.423837 H          1 MOL1         0.0832
      12    H8      19.833269   21.569706   24.443856 H          1 MOL1         0.0832
      13    C5      19.932992   19.423144   24.280657 C.3        1 MOL1         0.1218
      14    H9      19.252967   19.517666   25.139596 H          1 MOL1         0.0789
      15    C6      19.318459   18.346523   23.350051 C.3        1 MOL1        -0.1761
      16    H10     19.186795   17.419945   23.923487 H          1 MOL1         0.0832
      17    H11     18.301257   18.649435   23.074023 H          1 MOL1         0.0832
      18    C7      20.114934   18.017948   22.061642 C.3        1 MOL1        -0.1685
      19    H12     20.963104   17.369423   22.319720 H          1 MOL1         0.0832
      20    H13     19.470695   17.424024   21.399411 H          1 MOL1         0.0832
      21    O1      21.200718   18.972980   24.744780 O.3        1 MOL1        -0.5509
      22    H14     21.071175   18.057316   25.066150 H          1 MOL1         0.3779
@<TRIPOS>BOND
    1     1     2    1
    2     1     3    1
    3     1     4    1
    4     4     5    1
    5     4     6    1
    6     4     7    1
    7     7     8    1
    8     7     9    1
    9     7    10    1
   10    10    11    1
   11    10    12    1
   12    10    13    1
   13    13    14    1
   14    13    15    1
   15    15    16    1
   16    15    17    1
   17     1    18    1
   18    15    18    1
   19    18    19    1
   20    18    20    1
   21    13    21    1
   22    21    22    1
@<TRIPOS>SUBSTRUCTURE
       1 MOL1            1 RESIDUE      1      MOL     
@<SCITEGIC>MOL_PROPERTY
VM2 Rank
SciTegic.value.IntegerValue
58

@<SCITEGIC>MOL_PROPERTY
Conf_Id
SciTegic.value.IntegerValue
1362

@<SCITEGIC>MOL_PROPERTY
Probability
SciTegic.value.DoubleValue
0.01

@<SCITEGIC>MOL_PROPERTY
Sum Probability
SciTegic.value.DoubleValue
99.84

@<SCITEGIC>MOL_PROPERTY
Delta G
SciTegic.value.DoubleValue
3.469

@<SCITEGIC>MOL_PROPERTY
G
SciTegic.value.DoubleValue
50.831

@<SCITEGIC>MOL_PROPERTY
E
SciTegic.value.DoubleValue
24.561

@<SCITEGIC>MOL_PROPERTY
-TS
SciTegic.value.DoubleValue
26.270

@<SCITEGIC>MOL_PROPERTY
U+W
SciTegic.value.DoubleValue
6.676

@<SCITEGIC>MOL_PROPERTY
U
SciTegic.value.DoubleValue
8.892

@<SCITEGIC>MOL_PROPERTY
W
SciTegic.value.DoubleValue
-2.216

@<SCITEGIC>MOL_PROPERTY
W(PB)
SciTegic.value.DoubleValue
-4.226

@<SCITEGIC>MOL_PROPERTY
W(SA)
SciTegic.value.DoubleValue
2.010

@<SCITEGIC>MOL_PROPERTY
Valence
SciTegic.value.DoubleValue
13.213

@<SCITEGIC>MOL_PROPERTY
Coulomb
SciTegic.value.DoubleValue
-7.892

@<SCITEGIC>MOL_PROPERTY
VdW
SciTegic.value.DoubleValue
3.571

@<SCITEGIC>MOL_PROPERTY
VdW6
SciTegic.value.DoubleValue
-10.255

@<SCITEGIC>MOL_PROPERTY
VdW12
SciTegic.value.DoubleValue
13.826

@<SCITEGIC>MOL_PROPERTY
Bond
SciTegic.value.DoubleValue
0.437

@<SCITEGIC>MOL_PROPERTY
Angle
SciTegic.value.DoubleValue
3.615

@<SCITEGIC>MOL_PROPERTY
Pdih
SciTegic.value.DoubleValue
9.160

@<SCITEGIC>MOL_PROPERTY
Idih
SciTegic.value.DoubleValue
0.000

@<SCITEGIC>MOL_PROPERTY
Tether
SciTegic.value.DoubleValue
0.000

@<TRIPOS>MOLECULE
guest-5_vm2.mol2 : vm2 ligand conformer 59
          22          22           1
SMALL
USER_CHARGES
 
@<TRIPOS>ATOM
       1    C1      19.851611   19.088709   20.867010 C.3        1 MOL1        -0.1685
       2    H1      20.406380   19.426401   19.981010 H          1 MOL1         0.0832
       3    H2      19.153042   18.320038   20.509409 H          1 MOL1         0.0832
       4    C2      19.030889   20.276902   21.424534 C.3        1 MOL1        -0.1685
       5    H3      18.606218   20.828170   20.574489 H          1 MOL1         0.0832
       6    H4      18.161561   19.896876   21.975774 H          1 MOL1         0.0832
       7    C3      19.825926   21.270420   22.311154 C.3        1 MOL1        -0.1685
       8    H5      19.161762   22.113999   22.543871 H          1 MOL1         0.0832
       9    H6      20.654279   21.697360   21.729589 H          1 MOL1         0.0832
      10    C4      20.378299   20.705028   23.652840 C.3        1 MOL1        -0.1761
      11    H7      21.471664   20.627564   23.600948 H          1 MOL1         0.0832
      12    H8      20.178741   21.441695   24.442353 H          1 MOL1         0.0832
      13    C5      19.796229   19.339385   24.090821 C.3        1 MOL1         0.1218
      14    H9      18.701570   19.392414   24.015777 H          1 MOL1         0.0789
      15    C6      20.300200   18.126999   23.259396 C.3        1 MOL1        -0.1761
      16    H10     21.096251   17.616324   23.817963 H          1 MOL1         0.0832
      17    H11     19.482859   17.400240   23.167629 H          1 MOL1         0.0832
      18    C7      20.859619   18.443026   21.847107 C.3        1 MOL1        -0.1685
      19    H12     21.745252   19.085595   21.934625 H          1 MOL1         0.0832
      20    H13     21.227261   17.510044   21.398833 H          1 MOL1         0.0832
      21    O1      20.143226   19.127530   25.454138 O.3        1 MOL1        -0.5509
      22    H14     19.719710   18.286092   25.725228 H          1 MOL1         0.3779
@<TRIPOS>BOND
    1     1     2    1
    2     1     3    1
    3     1     4    1
    4     4     5    1
    5     4     6    1
    6     4     7    1
    7     7     8    1
    8     7     9    1
    9     7    10    1
   10    10    11    1
   11    10    12    1
   12    10    13    1
   13    13    14    1
   14    13    15    1
   15    15    16    1
   16    15    17    1
   17     1    18    1
   18    15    18    1
   19    18    19    1
   20    18    20    1
   21    13    21    1
   22    21    22    1
@<TRIPOS>SUBSTRUCTURE
       1 MOL1            1 RESIDUE      1      MOL     
@<SCITEGIC>MOL_PROPERTY
VM2 Rank
SciTegic.value.IntegerValue
59

@<SCITEGIC>MOL_PROPERTY
Conf_Id
SciTegic.value.IntegerValue
2598

@<SCITEGIC>MOL_PROPERTY
Probability
SciTegic.value.DoubleValue
0.01

@<SCITEGIC>MOL_PROPERTY
Sum Probability
SciTegic.value.DoubleValue
99.86

@<SCITEGIC>MOL_PROPERTY
Delta G
SciTegic.value.DoubleValue
3.582

@<SCITEGIC>MOL_PROPERTY
G
SciTegic.value.DoubleValue
50.945

@<SCITEGIC>MOL_PROPERTY
E
SciTegic.value.DoubleValue
24.130

@<SCITEGIC>MOL_PROPERTY
-TS
SciTegic.value.DoubleValue
26.815

@<SCITEGIC>MOL_PROPERTY
U+W
SciTegic.value.DoubleValue
6.246

@<SCITEGIC>MOL_PROPERTY
U
SciTegic.value.DoubleValue
8.573

@<SCITEGIC>MOL_PROPERTY
W
SciTegic.value.DoubleValue
-2.328

@<SCITEGIC>MOL_PROPERTY
W(PB)
SciTegic.value.DoubleValue
-4.344

@<SCITEGIC>MOL_PROPERTY
W(SA)
SciTegic.value.DoubleValue
2.016

@<SCITEGIC>MOL_PROPERTY
Valence
SciTegic.value.DoubleValue
13.347

@<SCITEGIC>MOL_PROPERTY
Coulomb
SciTegic.value.DoubleValue
-8.600

@<SCITEGIC>MOL_PROPERTY
VdW
SciTegic.value.DoubleValue
3.826

@<SCITEGIC>MOL_PROPERTY
VdW6
SciTegic.value.DoubleValue
-9.679

@<SCITEGIC>MOL_PROPERTY
VdW12
SciTegic.value.DoubleValue
13.505

@<SCITEGIC>MOL_PROPERTY
Bond
SciTegic.value.DoubleValue
0.433

@<SCITEGIC>MOL_PROPERTY
Angle
SciTegic.value.DoubleValue
3.363

@<SCITEGIC>MOL_PROPERTY
Pdih
SciTegic.value.DoubleValue
9.551

@<SCITEGIC>MOL_PROPERTY
Idih
SciTegic.value.DoubleValue
0.000

@<SCITEGIC>MOL_PROPERTY
Tether
SciTegic.value.DoubleValue
0.000

@<TRIPOS>MOLECULE
guest-5_vm2.mol2 : vm2 ligand conformer 60
          22          22           1
SMALL
USER_CHARGES
 
@<TRIPOS>ATOM
       1    C1      20.029695   19.135017   20.849458 C.3        1 MOL1        -0.1685
       2    H1      19.230233   19.124629   20.096094 H          1 MOL1         0.0832
       3    H2      20.932599   18.779419   20.334632 H          1 MOL1         0.0832
       4    C2      20.267337   20.595253   21.304845 C.3        1 MOL1        -0.1685
       5    H3      21.295615   20.703049   21.672343 H          1 MOL1         0.0832
       6    H4      20.215638   21.242699   20.418867 H          1 MOL1         0.0832
       7    C3      19.268582   21.127194   22.365387 C.3        1 MOL1        -0.1685
       8    H5      18.247696   21.079718   21.962646 H          1 MOL1         0.0832
       9    H6      19.478813   22.195115   22.514532 H          1 MOL1         0.0832
      10    C4      19.304923   20.428038   23.756303 C.3        1 MOL1        -0.1761
      11    H7      19.263770   21.205291   24.530909 H          1 MOL1         0.0832
      12    H8      18.393669   19.833061   23.896789 H          1 MOL1         0.0832
      13    C5      20.538553   19.531065   24.019362 C.3        1 MOL1         0.1218
      14    H9      21.439827   20.099611   23.752508 H          1 MOL1         0.0789
      15    C6      20.539145   18.188871   23.235885 C.3        1 MOL1        -0.1761
      16    H10     21.573317   17.941780   22.963703 H          1 MOL1         0.0832
      17    H11     20.203040   17.384466   23.904052 H          1 MOL1         0.0832
      18    C7      19.651848   18.131094   21.964341 C.3        1 MOL1        -0.1685
      19    H12     19.703359   17.116447   21.546720 H          1 MOL1         0.0832
      20    H13     18.598929   18.272544   22.240446 H          1 MOL1         0.0832
      21    O1      20.585918   19.241468   25.411419 O.3        1 MOL1        -0.5509
      22    H14     21.402007   18.720080   25.563168 H          1 MOL1         0.3779
@<TRIPOS>BOND
    1     1     2    1
    2     1     3    1
    3     1     4    1
    4     4     5    1
    5     4     6    1
    6     4     7    1
    7     7     8    1
    8     7     9    1
    9     7    10    1
   10    10    11    1
   11    10    12    1
   12    10    13    1
   13    13    14    1
   14    13    15    1
   15    15    16    1
   16    15    17    1
   17     1    18    1
   18    15    18    1
   19    18    19    1
   20    18    20    1
   21    13    21    1
   22    21    22    1
@<TRIPOS>SUBSTRUCTURE
       1 MOL1            1 RESIDUE      1      MOL     
@<SCITEGIC>MOL_PROPERTY
VM2 Rank
SciTegic.value.IntegerValue
60

@<SCITEGIC>MOL_PROPERTY
Conf_Id
SciTegic.value.IntegerValue
2576

@<SCITEGIC>MOL_PROPERTY
Probability
SciTegic.value.DoubleValue
0.01

@<SCITEGIC>MOL_PROPERTY
Sum Probability
SciTegic.value.DoubleValue
99.87

@<SCITEGIC>MOL_PROPERTY
Delta G
SciTegic.value.DoubleValue
3.604

@<SCITEGIC>MOL_PROPERTY
G
SciTegic.value.DoubleValue
50.967

@<SCITEGIC>MOL_PROPERTY
E
SciTegic.value.DoubleValue
24.149

@<SCITEGIC>MOL_PROPERTY
-TS
SciTegic.value.DoubleValue
26.818

@<SCITEGIC>MOL_PROPERTY
U+W
SciTegic.value.DoubleValue
6.264

@<SCITEGIC>MOL_PROPERTY
U
SciTegic.value.DoubleValue
8.574

@<SCITEGIC>MOL_PROPERTY
W
SciTegic.value.DoubleValue
-2.310

@<SCITEGIC>MOL_PROPERTY
W(PB)
SciTegic.value.DoubleValue
-4.333

@<SCITEGIC>MOL_PROPERTY
W(SA)
SciTegic.value.DoubleValue
2.023

@<SCITEGIC>MOL_PROPERTY
Valence
SciTegic.value.DoubleValue
13.346

@<SCITEGIC>MOL_PROPERTY
Coulomb
SciTegic.value.DoubleValue
-8.599

@<SCITEGIC>MOL_PROPERTY
VdW
SciTegic.value.DoubleValue
3.827

@<SCITEGIC>MOL_PROPERTY
VdW6
SciTegic.value.DoubleValue
-9.679

@<SCITEGIC>MOL_PROPERTY
VdW12
SciTegic.value.DoubleValue
13.506

@<SCITEGIC>MOL_PROPERTY
Bond
SciTegic.value.DoubleValue
0.433

@<SCITEGIC>MOL_PROPERTY
Angle
SciTegic.value.DoubleValue
3.364

@<SCITEGIC>MOL_PROPERTY
Pdih
SciTegic.value.DoubleValue
9.548

@<SCITEGIC>MOL_PROPERTY
Idih
SciTegic.value.DoubleValue
0.000

@<SCITEGIC>MOL_PROPERTY
Tether
SciTegic.value.DoubleValue
0.000

@<TRIPOS>MOLECULE
guest-5_vm2.mol2 : vm2 ligand conformer 61
          22          22           1
SMALL
USER_CHARGES
 
@<TRIPOS>ATOM
       1    C1      19.872641   19.099481   20.860666 C.3        1 MOL1        -0.1685
       2    H1      20.448485   19.456159   19.995820 H          1 MOL1         0.0832
       3    H2      19.184349   18.337548   20.470212 H          1 MOL1         0.0832
       4    C2      19.034034   20.272407   21.422950 C.3        1 MOL1        -0.1685
       5    H3      18.602779   20.822333   20.575361 H          1 MOL1         0.0832
       6    H4      18.169849   19.875717   21.970715 H          1 MOL1         0.0832
       7    C3      19.812164   21.272543   22.316740 C.3        1 MOL1        -0.1685
       8    H5      19.129601   22.097198   22.563729 H          1 MOL1         0.0832
       9    H6      20.626798   21.725904   21.735763 H          1 MOL1         0.0832
      10    C4      20.385839   20.703684   23.647257 C.3        1 MOL1        -0.1761
      11    H7      21.476863   20.613008   23.571898 H          1 MOL1         0.0832
      12    H8      20.213521   21.448147   24.435570 H          1 MOL1         0.0832
      13    C5      19.795376   19.344481   24.095788 C.3        1 MOL1         0.1218
      14    H9      18.700093   19.407647   24.036936 H          1 MOL1         0.0789
      15    C6      20.269918   18.124547   23.257051 C.3        1 MOL1        -0.1761
      16    H10     21.040265   17.583039   23.822490 H          1 MOL1         0.0832
      17    H11     19.430638   17.425259   23.152653 H          1 MOL1         0.0832
      18    C7      20.854894   18.432796   21.852942 C.3        1 MOL1        -0.1685
      19    H12     21.751937   19.057080   21.953449 H          1 MOL1         0.0832
      20    H13     21.210319   17.493837   21.407347 H          1 MOL1         0.0832
      21    O1      20.161135   19.128060   25.453606 O.3        1 MOL1        -0.5509
      22    H14     19.797300   19.879137   25.967427 H          1 MOL1         0.3779
@<TRIPOS>BOND
    1     1     2    1
    2     1     3    1
    3     1     4    1
    4     4     5    1
    5     4     6    1
    6     4     7    1
    7     7     8    1
    8     7     9    1
    9     7    10    1
   10    10    11    1
   11    10    12    1
   12    10    13    1
   13    13    14    1
   14    13    15    1
   15    15    16    1
   16    15    17    1
   17     1    18    1
   18    15    18    1
   19    18    19    1
   20    18    20    1
   21    13    21    1
   22    21    22    1
@<TRIPOS>SUBSTRUCTURE
       1 MOL1            1 RESIDUE      1      MOL     
@<SCITEGIC>MOL_PROPERTY
VM2 Rank
SciTegic.value.IntegerValue
61

@<SCITEGIC>MOL_PROPERTY
Conf_Id
SciTegic.value.IntegerValue
2396

@<SCITEGIC>MOL_PROPERTY
Probability
SciTegic.value.DoubleValue
0.01

@<SCITEGIC>MOL_PROPERTY
Sum Probability
SciTegic.value.DoubleValue
99.88

@<SCITEGIC>MOL_PROPERTY
Delta G
SciTegic.value.DoubleValue
3.609

@<SCITEGIC>MOL_PROPERTY
G
SciTegic.value.DoubleValue
50.972

@<SCITEGIC>MOL_PROPERTY
E
SciTegic.value.DoubleValue
24.167

@<SCITEGIC>MOL_PROPERTY
-TS
SciTegic.value.DoubleValue
26.805

@<SCITEGIC>MOL_PROPERTY
U+W
SciTegic.value.DoubleValue
6.282

@<SCITEGIC>MOL_PROPERTY
U
SciTegic.value.DoubleValue
8.609

@<SCITEGIC>MOL_PROPERTY
W
SciTegic.value.DoubleValue
-2.327

@<SCITEGIC>MOL_PROPERTY
W(PB)
SciTegic.value.DoubleValue
-4.320

@<SCITEGIC>MOL_PROPERTY
W(SA)
SciTegic.value.DoubleValue
1.992

@<SCITEGIC>MOL_PROPERTY
Valence
SciTegic.value.DoubleValue
13.314

@<SCITEGIC>MOL_PROPERTY
Coulomb
SciTegic.value.DoubleValue
-8.546

@<SCITEGIC>MOL_PROPERTY
VdW
SciTegic.value.DoubleValue
3.841

@<SCITEGIC>MOL_PROPERTY
VdW6
SciTegic.value.DoubleValue
-9.685

@<SCITEGIC>MOL_PROPERTY
VdW12
SciTegic.value.DoubleValue
13.526

@<SCITEGIC>MOL_PROPERTY
Bond
SciTegic.value.DoubleValue
0.434

@<SCITEGIC>MOL_PROPERTY
Angle
SciTegic.value.DoubleValue
3.374

@<SCITEGIC>MOL_PROPERTY
Pdih
SciTegic.value.DoubleValue
9.506

@<SCITEGIC>MOL_PROPERTY
Idih
SciTegic.value.DoubleValue
0.000

@<SCITEGIC>MOL_PROPERTY
Tether
SciTegic.value.DoubleValue
0.000

@<TRIPOS>MOLECULE
guest-5_vm2.mol2 : vm2 ligand conformer 62
          22          22           1
SMALL
USER_CHARGES
 
@<TRIPOS>ATOM
       1    C1      19.326898   18.970790   21.198954 C.3        1 MOL1        -0.1685
       2    H1      19.113032   18.604424   20.185617 H          1 MOL1         0.0832
       3    H2      18.438906   18.706350   21.786795 H          1 MOL1         0.0832
       4    C2      19.467059   20.511086   21.135144 C.3        1 MOL1        -0.1685
       5    H3      20.023272   20.778608   20.226373 H          1 MOL1         0.0832
       6    H4      18.466148   20.947358   21.014409 H          1 MOL1         0.0832
       7    C3      20.169871   21.177532   22.341578 C.3        1 MOL1        -0.1685
       8    H5      20.033365   22.264614   22.262927 H          1 MOL1         0.0832
       9    H6      21.253448   21.019951   22.264551 H          1 MOL1         0.0832
      10    C4      19.671274   20.715496   23.736316 C.3        1 MOL1        -0.1761
      11    H7      20.204714   21.313852   24.487245 H          1 MOL1         0.0832
      12    H8      18.610198   20.975225   23.842627 H          1 MOL1         0.0832
      13    C5      19.849874   19.208258   24.070152 C.3        1 MOL1         0.1218
      14    H9      18.893980   18.691807   23.908083 H          1 MOL1         0.0789
      15    C6      20.936336   18.489607   23.234234 C.3        1 MOL1        -0.1761
      16    H10     21.867568   19.067809   23.285551 H          1 MOL1         0.0832
      17    H11     21.167664   17.527797   23.710933 H          1 MOL1         0.0832
      18    C7      20.566836   18.216954   21.746265 C.3        1 MOL1        -0.1685
      19    H12     21.436532   18.434226   21.111373 H          1 MOL1         0.0832
      20    H13     20.378926   17.140508   21.632916 H          1 MOL1         0.0832
      21    O1      20.197853   19.088277   25.444357 O.3        1 MOL1        -0.5509
      22    H14     19.470997   19.501282   25.956198 H          1 MOL1         0.3779
@<TRIPOS>BOND
    1     1     2    1
    2     1     3    1
    3     1     4    1
    4     4     5    1
    5     4     6    1
    6     4     7    1
    7     7     8    1
    8     7     9    1
    9     7    10    1
   10    10    11    1
   11    10    12    1
   12    10    13    1
   13    13    14    1
   14    13    15    1
   15    15    16    1
   16    15    17    1
   17     1    18    1
   18    15    18    1
   19    18    19    1
   20    18    20    1
   21    13    21    1
   22    21    22    1
@<TRIPOS>SUBSTRUCTURE
       1 MOL1            1 RESIDUE      1      MOL     
@<SCITEGIC>MOL_PROPERTY
VM2 Rank
SciTegic.value.IntegerValue
62

@<SCITEGIC>MOL_PROPERTY
Conf_Id
SciTegic.value.IntegerValue
1605

@<SCITEGIC>MOL_PROPERTY
Probability
SciTegic.value.DoubleValue
0.01

@<SCITEGIC>MOL_PROPERTY
Sum Probability
SciTegic.value.DoubleValue
99.89

@<SCITEGIC>MOL_PROPERTY
Delta G
SciTegic.value.DoubleValue
3.616

@<SCITEGIC>MOL_PROPERTY
G
SciTegic.value.DoubleValue
50.978

@<SCITEGIC>MOL_PROPERTY
E
SciTegic.value.DoubleValue
24.130

@<SCITEGIC>MOL_PROPERTY
-TS
SciTegic.value.DoubleValue
26.848

@<SCITEGIC>MOL_PROPERTY
U+W
SciTegic.value.DoubleValue
6.246

@<SCITEGIC>MOL_PROPERTY
U
SciTegic.value.DoubleValue
8.573

@<SCITEGIC>MOL_PROPERTY
W
SciTegic.value.DoubleValue
-2.328

@<SCITEGIC>MOL_PROPERTY
W(PB)
SciTegic.value.DoubleValue
-4.334

@<SCITEGIC>MOL_PROPERTY
W(SA)
SciTegic.value.DoubleValue
2.006

@<SCITEGIC>MOL_PROPERTY
Valence
SciTegic.value.DoubleValue
13.348

@<SCITEGIC>MOL_PROPERTY
Coulomb
SciTegic.value.DoubleValue
-8.601

@<SCITEGIC>MOL_PROPERTY
VdW
SciTegic.value.DoubleValue
3.826

@<SCITEGIC>MOL_PROPERTY
VdW6
SciTegic.value.DoubleValue
-9.679

@<SCITEGIC>MOL_PROPERTY
VdW12
SciTegic.value.DoubleValue
13.505

@<SCITEGIC>MOL_PROPERTY
Bond
SciTegic.value.DoubleValue
0.433

@<SCITEGIC>MOL_PROPERTY
Angle
SciTegic.value.DoubleValue
3.363

@<SCITEGIC>MOL_PROPERTY
Pdih
SciTegic.value.DoubleValue
9.552

@<SCITEGIC>MOL_PROPERTY
Idih
SciTegic.value.DoubleValue
0.000

@<SCITEGIC>MOL_PROPERTY
Tether
SciTegic.value.DoubleValue
0.000

@<TRIPOS>MOLECULE
guest-5_vm2.mol2 : vm2 ligand conformer 63
          22          22           1
SMALL
USER_CHARGES
 
@<TRIPOS>ATOM
       1    C1      20.561685   19.285382   21.066558 C.3        1 MOL1        -0.1685
       2    H1      20.717043   19.012897   20.013737 H          1 MOL1         0.0832
       3    H2      21.565715   19.503650   21.451669 H          1 MOL1         0.0832
       4    C2      19.698937   20.569885   21.109892 C.3        1 MOL1        -0.1685
       5    H3      20.326389   21.421127   20.812531 H          1 MOL1         0.0832
       6    H4      18.912912   20.494465   20.346165 H          1 MOL1         0.0832
       7    C3      19.022780   20.885936   22.465072 C.3        1 MOL1        -0.1685
       8    H5      18.151620   20.231682   22.598915 H          1 MOL1         0.0832
       9    H6      18.610804   21.903010   22.416061 H          1 MOL1         0.0832
      10    C4      19.948563   20.785936   23.706186 C.3        1 MOL1        -0.1761
      11    H7      20.758566   21.520322   23.610161 H          1 MOL1         0.0832
      12    H8      19.358956   21.099940   24.578107 H          1 MOL1         0.0832
      13    C5      20.572955   19.391929   23.992804 C.3        1 MOL1         0.1218
      14    H9      21.605576   19.380368   23.618235 H          1 MOL1         0.0789
      15    C6      19.813175   18.204127   23.354468 C.3        1 MOL1        -0.1761
      16    H10     20.163105   17.272612   23.818861 H          1 MOL1         0.0832
      17    H11     18.750523   18.275977   23.618539 H          1 MOL1         0.0832
      18    C7      19.964237   18.063088   21.811060 C.3        1 MOL1        -0.1685
      19    H12     20.613540   17.200249   21.609046 H          1 MOL1         0.0832
      20    H13     18.989287   17.808996   21.373372 H          1 MOL1         0.0832
      21    O1      20.603667   19.191718   25.400960 O.3        1 MOL1        -0.5509
      22    H14     21.134721   19.924204   25.778213 H          1 MOL1         0.3779
@<TRIPOS>BOND
    1     1     2    1
    2     1     3    1
    3     1     4    1
    4     4     5    1
    5     4     6    1
    6     4     7    1
    7     7     8    1
    8     7     9    1
    9     7    10    1
   10    10    11    1
   11    10    12    1
   12    10    13    1
   13    13    14    1
   14    13    15    1
   15    15    16    1
   16    15    17    1
   17     1    18    1
   18    15    18    1
   19    18    19    1
   20    18    20    1
   21    13    21    1
   22    21    22    1
@<TRIPOS>SUBSTRUCTURE
       1 MOL1            1 RESIDUE      1      MOL     
@<SCITEGIC>MOL_PROPERTY
VM2 Rank
SciTegic.value.IntegerValue
63

@<SCITEGIC>MOL_PROPERTY
Conf_Id
SciTegic.value.IntegerValue
2102

@<SCITEGIC>MOL_PROPERTY
Probability
SciTegic.value.DoubleValue
0.01

@<SCITEGIC>MOL_PROPERTY
Sum Probability
SciTegic.value.DoubleValue
99.90

@<SCITEGIC>MOL_PROPERTY
Delta G
SciTegic.value.DoubleValue
3.653

@<SCITEGIC>MOL_PROPERTY
G
SciTegic.value.DoubleValue
51.016

@<SCITEGIC>MOL_PROPERTY
E
SciTegic.value.DoubleValue
24.167

@<SCITEGIC>MOL_PROPERTY
-TS
SciTegic.value.DoubleValue
26.849

@<SCITEGIC>MOL_PROPERTY
U+W
SciTegic.value.DoubleValue
6.282

@<SCITEGIC>MOL_PROPERTY
U
SciTegic.value.DoubleValue
8.574

@<SCITEGIC>MOL_PROPERTY
W
SciTegic.value.DoubleValue
-2.292

@<SCITEGIC>MOL_PROPERTY
W(PB)
SciTegic.value.DoubleValue
-4.304

@<SCITEGIC>MOL_PROPERTY
W(SA)
SciTegic.value.DoubleValue
2.012

@<SCITEGIC>MOL_PROPERTY
Valence
SciTegic.value.DoubleValue
13.346

@<SCITEGIC>MOL_PROPERTY
Coulomb
SciTegic.value.DoubleValue
-8.599

@<SCITEGIC>MOL_PROPERTY
VdW
SciTegic.value.DoubleValue
3.827

@<SCITEGIC>MOL_PROPERTY
VdW6
SciTegic.value.DoubleValue
-9.679

@<SCITEGIC>MOL_PROPERTY
VdW12
SciTegic.value.DoubleValue
13.506

@<SCITEGIC>MOL_PROPERTY
Bond
SciTegic.value.DoubleValue
0.433

@<SCITEGIC>MOL_PROPERTY
Angle
SciTegic.value.DoubleValue
3.364

@<SCITEGIC>MOL_PROPERTY
Pdih
SciTegic.value.DoubleValue
9.549

@<SCITEGIC>MOL_PROPERTY
Idih
SciTegic.value.DoubleValue
0.000

@<SCITEGIC>MOL_PROPERTY
Tether
SciTegic.value.DoubleValue
0.000

@<TRIPOS>MOLECULE
guest-5_vm2.mol2 : vm2 ligand conformer 64
          22          22           1
SMALL
USER_CHARGES
 
@<TRIPOS>ATOM
       1    C1      20.003806   19.133427   20.847728 C.3        1 MOL1        -0.1685
       2    H1      19.181024   19.132909   20.119853 H          1 MOL1         0.0832
       3    H2      20.887542   18.774240   20.302990 H          1 MOL1         0.0832
       4    C2      20.269618   20.588413   21.303229 C.3        1 MOL1        -0.1685
       5    H3      21.301155   20.675916   21.667253 H          1 MOL1         0.0832
       6    H4      20.226536   21.237723   20.418160 H          1 MOL1         0.0832
       7    C3      19.285403   21.138064   22.368021 C.3        1 MOL1        -0.1685
       8    H5      18.263680   21.123237   21.964834 H          1 MOL1         0.0832
       9    H6      19.526287   22.198171   22.526463 H          1 MOL1         0.0832
      10    C4      19.301181   20.425756   23.751939 C.3        1 MOL1        -0.1761
      11    H7      19.235563   21.197321   24.530231 H          1 MOL1         0.0832
      12    H8      18.392072   19.822390   23.868921 H          1 MOL1         0.0832
      13    C5      20.537890   19.534873   24.024211 C.3        1 MOL1         0.1218
      14    H9      21.439618   20.110193   23.773178 H          1 MOL1         0.0789
      15    C6      20.561375   18.199462   23.228472 C.3        1 MOL1        -0.1761
      16    H10     21.598103   17.982681   22.941255 H          1 MOL1         0.0832
      17    H11     20.260608   17.382092   23.897672 H          1 MOL1         0.0832
      18    C7      19.657056   18.125553   21.969285 C.3        1 MOL1        -0.1685
      19    H12     19.719030   17.111315   21.552141 H          1 MOL1         0.0832
      20    H13     18.605895   18.249689   22.259373 H          1 MOL1         0.0832
      21    O1      20.569672   19.232452   25.414114 O.3        1 MOL1        -0.5509
      22    H14     20.616432   20.088703   25.888613 H          1 MOL1         0.3779
@<TRIPOS>BOND
    1     1     2    1
    2     1     3    1
    3     1     4    1
    4     4     5    1
    5     4     6    1
    6     4     7    1
    7     7     8    1
    8     7     9    1
    9     7    10    1
   10    10    11    1
   11    10    12    1
   12    10    13    1
   13    13    14    1
   14    13    15    1
   15    15    16    1
   16    15    17    1
   17     1    18    1
   18    15    18    1
   19    18    19    1
   20    18    20    1
   21    13    21    1
   22    21    22    1
@<TRIPOS>SUBSTRUCTURE
       1 MOL1            1 RESIDUE      1      MOL     
@<SCITEGIC>MOL_PROPERTY
VM2 Rank
SciTegic.value.IntegerValue
64

@<SCITEGIC>MOL_PROPERTY
Conf_Id
SciTegic.value.IntegerValue
2037

@<SCITEGIC>MOL_PROPERTY
Probability
SciTegic.value.DoubleValue
0.01

@<SCITEGIC>MOL_PROPERTY
Sum Probability
SciTegic.value.DoubleValue
99.91

@<SCITEGIC>MOL_PROPERTY
Delta G
SciTegic.value.DoubleValue
3.677

@<SCITEGIC>MOL_PROPERTY
G
SciTegic.value.DoubleValue
51.040

@<SCITEGIC>MOL_PROPERTY
E
SciTegic.value.DoubleValue
24.229

@<SCITEGIC>MOL_PROPERTY
-TS
SciTegic.value.DoubleValue
26.810

@<SCITEGIC>MOL_PROPERTY
U+W
SciTegic.value.DoubleValue
6.345

@<SCITEGIC>MOL_PROPERTY
U
SciTegic.value.DoubleValue
8.609

@<SCITEGIC>MOL_PROPERTY
W
SciTegic.value.DoubleValue
-2.265

@<SCITEGIC>MOL_PROPERTY
W(PB)
SciTegic.value.DoubleValue
-4.271

@<SCITEGIC>MOL_PROPERTY
W(SA)
SciTegic.value.DoubleValue
2.006

@<SCITEGIC>MOL_PROPERTY
Valence
SciTegic.value.DoubleValue
13.313

@<SCITEGIC>MOL_PROPERTY
Coulomb
SciTegic.value.DoubleValue
-8.545

@<SCITEGIC>MOL_PROPERTY
VdW
SciTegic.value.DoubleValue
3.842

@<SCITEGIC>MOL_PROPERTY
VdW6
SciTegic.value.DoubleValue
-9.685

@<SCITEGIC>MOL_PROPERTY
VdW12
SciTegic.value.DoubleValue
13.527

@<SCITEGIC>MOL_PROPERTY
Bond
SciTegic.value.DoubleValue
0.435

@<SCITEGIC>MOL_PROPERTY
Angle
SciTegic.value.DoubleValue
3.375

@<SCITEGIC>MOL_PROPERTY
Pdih
SciTegic.value.DoubleValue
9.503

@<SCITEGIC>MOL_PROPERTY
Idih
SciTegic.value.DoubleValue
0.000

@<SCITEGIC>MOL_PROPERTY
Tether
SciTegic.value.DoubleValue
0.000

@<TRIPOS>MOLECULE
guest-5_vm2.mol2 : vm2 ligand conformer 65
          22          22           1
SMALL
USER_CHARGES
 
@<TRIPOS>ATOM
       1    C1      20.560663   19.291850   21.067526 C.3        1 MOL1        -0.1685
       2    H1      21.559168   19.528696   21.456265 H          1 MOL1         0.0832
       3    H2      20.724282   19.020783   20.015596 H          1 MOL1         0.0832
       4    C2      19.676053   20.561137   21.106785 C.3        1 MOL1        -0.1685
       5    H3      20.283508   21.416821   20.781902 H          1 MOL1         0.0832
       6    H4      18.875500   20.460257   20.361324 H          1 MOL1         0.0832
       7    C3      19.026147   20.891450   22.471492 C.3        1 MOL1        -0.1685
       8    H5      18.150186   20.248021   22.623835 H          1 MOL1         0.0832
       9    H6      18.624084   21.912507   22.423398 H          1 MOL1         0.0832
      10    C4      19.972362   20.788857   23.697425 C.3        1 MOL1        -0.1761
      11    H7      20.796183   21.503969   23.578145 H          1 MOL1         0.0832
      12    H8      19.408682   21.127836   24.577052 H          1 MOL1         0.0832
      13    C5      20.574208   19.386857   23.995949 C.3        1 MOL1         0.1218
      14    H9      21.611158   19.364363   23.633549 H          1 MOL1         0.0789
      15    C6      19.807865   18.206062   23.351204 C.3        1 MOL1        -0.1761
      16    H10     20.133608   17.267813   23.819110 H          1 MOL1         0.0832
      17    H11     18.741913   18.294010   23.596645 H          1 MOL1         0.0832
      18    C7      19.982785   18.060046   21.811387 C.3        1 MOL1        -0.1685
      19    H12     20.656050   17.212662   21.622692 H          1 MOL1         0.0832
      20    H13     19.020173   17.779489   21.362651 H          1 MOL1         0.0832
      21    O1      20.585916   19.191740   25.405233 O.3        1 MOL1        -0.5509
      22    H14     21.024921   18.330696   25.567655 H          1 MOL1         0.3779
@<TRIPOS>BOND
    1     1     2    1
    2     1     3    1
    3     1     4    1
    4     4     5    1
    5     4     6    1
    6     4     7    1
    7     7     8    1
    8     7     9    1
    9     7    10    1
   10    10    11    1
   11    10    12    1
   12    10    13    1
   13    13    14    1
   14    13    15    1
   15    15    16    1
   16    15    17    1
   17     1    18    1
   18    15    18    1
   19    18    19    1
   20    18    20    1
   21    13    21    1
   22    21    22    1
@<TRIPOS>SUBSTRUCTURE
       1 MOL1            1 RESIDUE      1      MOL     
@<SCITEGIC>MOL_PROPERTY
VM2 Rank
SciTegic.value.IntegerValue
65

@<SCITEGIC>MOL_PROPERTY
Conf_Id
SciTegic.value.IntegerValue
1296

@<SCITEGIC>MOL_PROPERTY
Probability
SciTegic.value.DoubleValue
0.01

@<SCITEGIC>MOL_PROPERTY
Sum Probability
SciTegic.value.DoubleValue
99.92

@<SCITEGIC>MOL_PROPERTY
Delta G
SciTegic.value.DoubleValue
3.679

@<SCITEGIC>MOL_PROPERTY
G
SciTegic.value.DoubleValue
51.041

@<SCITEGIC>MOL_PROPERTY
E
SciTegic.value.DoubleValue
24.192

@<SCITEGIC>MOL_PROPERTY
-TS
SciTegic.value.DoubleValue
26.849

@<SCITEGIC>MOL_PROPERTY
U+W
SciTegic.value.DoubleValue
6.308

@<SCITEGIC>MOL_PROPERTY
U
SciTegic.value.DoubleValue
8.609

@<SCITEGIC>MOL_PROPERTY
W
SciTegic.value.DoubleValue
-2.302

@<SCITEGIC>MOL_PROPERTY
W(PB)
SciTegic.value.DoubleValue
-4.320

@<SCITEGIC>MOL_PROPERTY
W(SA)
SciTegic.value.DoubleValue
2.019

@<SCITEGIC>MOL_PROPERTY
Valence
SciTegic.value.DoubleValue
13.314

@<SCITEGIC>MOL_PROPERTY
Coulomb
SciTegic.value.DoubleValue
-8.546

@<SCITEGIC>MOL_PROPERTY
VdW
SciTegic.value.DoubleValue
3.841

@<SCITEGIC>MOL_PROPERTY
VdW6
SciTegic.value.DoubleValue
-9.685

@<SCITEGIC>MOL_PROPERTY
VdW12
SciTegic.value.DoubleValue
13.526

@<SCITEGIC>MOL_PROPERTY
Bond
SciTegic.value.DoubleValue
0.435

@<SCITEGIC>MOL_PROPERTY
Angle
SciTegic.value.DoubleValue
3.374

@<SCITEGIC>MOL_PROPERTY
Pdih
SciTegic.value.DoubleValue
9.505

@<SCITEGIC>MOL_PROPERTY
Idih
SciTegic.value.DoubleValue
0.000

@<SCITEGIC>MOL_PROPERTY
Tether
SciTegic.value.DoubleValue
0.000

@<TRIPOS>MOLECULE
guest-5_vm2.mol2 : vm2 ligand conformer 66
          22          22           1
SMALL
USER_CHARGES
 
@<TRIPOS>ATOM
       1    C1      20.177425   19.219435   20.872038 C.3        1 MOL1        -0.1685
       2    H1      21.018921   19.725959   20.380163 H          1 MOL1         0.0832
       3    H2      19.707476   18.600793   20.095312 H          1 MOL1         0.0832
       4    C2      19.133042   20.270572   21.326439 C.3        1 MOL1        -0.1685
       5    H3      18.787874   20.824955   20.443134 H          1 MOL1         0.0832
       6    H4      18.239222   19.763045   21.711534 H          1 MOL1         0.0832
       7    C3      19.638375   21.291302   22.373044 C.3        1 MOL1        -0.1685
       8    H5      18.774238   21.864090   22.736357 H          1 MOL1         0.0832
       9    H6      20.295899   22.019125   21.878467 H          1 MOL1         0.0832
      10    C4      20.391541   20.695498   23.588614 C.3        1 MOL1        -0.1761
      11    H7      21.441977   20.528419   23.321695 H          1 MOL1         0.0832
      12    H8      20.415393   21.459285   24.376724 H          1 MOL1         0.0832
      13    C5      19.787804   19.392761   24.170556 C.3        1 MOL1         0.1218
      14    H9      18.736935   19.587554   24.429013 H          1 MOL1         0.0789
      15    C6      19.829338   18.147405   23.237109 C.3        1 MOL1        -0.1761
      16    H10     20.170780   17.279456   23.817169 H          1 MOL1         0.0832
      17    H11     18.807471   17.894797   22.927887 H          1 MOL1         0.0832
      18    C7      20.725682   18.274295   21.976876 C.3        1 MOL1        -0.1685
      19    H12     21.734089   18.589141   22.275178 H          1 MOL1         0.0832
      20    H13     20.859445   17.276123   21.538253 H          1 MOL1         0.0832
      21    O1      20.502792   19.086732   25.362324 O.3        1 MOL1        -0.5509
      22    H14     20.412381   19.863023   25.953406 H          1 MOL1         0.3779
@<TRIPOS>BOND
    1     1     2    1
    2     1     3    1
    3     1     4    1
    4     4     5    1
    5     4     6    1
    6     4     7    1
    7     7     8    1
    8     7     9    1
    9     7    10    1
   10    10    11    1
   11    10    12    1
   12    10    13    1
   13    13    14    1
   14    13    15    1
   15    15    16    1
   16    15    17    1
   17     1    18    1
   18    15    18    1
   19    18    19    1
   20    18    20    1
   21    13    21    1
   22    21    22    1
@<TRIPOS>SUBSTRUCTURE
       1 MOL1            1 RESIDUE      1      MOL     
@<SCITEGIC>MOL_PROPERTY
VM2 Rank
SciTegic.value.IntegerValue
66

@<SCITEGIC>MOL_PROPERTY
Conf_Id
SciTegic.value.IntegerValue
1787

@<SCITEGIC>MOL_PROPERTY
Probability
SciTegic.value.DoubleValue
0.01

@<SCITEGIC>MOL_PROPERTY
Sum Probability
SciTegic.value.DoubleValue
99.93

@<SCITEGIC>MOL_PROPERTY
Delta G
SciTegic.value.DoubleValue
3.726

@<SCITEGIC>MOL_PROPERTY
G
SciTegic.value.DoubleValue
51.089

@<SCITEGIC>MOL_PROPERTY
E
SciTegic.value.DoubleValue
24.275

@<SCITEGIC>MOL_PROPERTY
-TS
SciTegic.value.DoubleValue
26.814

@<SCITEGIC>MOL_PROPERTY
U+W
SciTegic.value.DoubleValue
6.390

@<SCITEGIC>MOL_PROPERTY
U
SciTegic.value.DoubleValue
8.781

@<SCITEGIC>MOL_PROPERTY
W
SciTegic.value.DoubleValue
-2.391

@<SCITEGIC>MOL_PROPERTY
W(PB)
SciTegic.value.DoubleValue
-4.391

@<SCITEGIC>MOL_PROPERTY
W(SA)
SciTegic.value.DoubleValue
2.000

@<SCITEGIC>MOL_PROPERTY
Valence
SciTegic.value.DoubleValue
13.328

@<SCITEGIC>MOL_PROPERTY
Coulomb
SciTegic.value.DoubleValue
-8.388

@<SCITEGIC>MOL_PROPERTY
VdW
SciTegic.value.DoubleValue
3.840

@<SCITEGIC>MOL_PROPERTY
VdW6
SciTegic.value.DoubleValue
-9.744

@<SCITEGIC>MOL_PROPERTY
VdW12
SciTegic.value.DoubleValue
13.585

@<SCITEGIC>MOL_PROPERTY
Bond
SciTegic.value.DoubleValue
0.436

@<SCITEGIC>MOL_PROPERTY
Angle
SciTegic.value.DoubleValue
3.477

@<SCITEGIC>MOL_PROPERTY
Pdih
SciTegic.value.DoubleValue
9.415

@<SCITEGIC>MOL_PROPERTY
Idih
SciTegic.value.DoubleValue
0.000

@<SCITEGIC>MOL_PROPERTY
Tether
SciTegic.value.DoubleValue
0.000

@<TRIPOS>MOLECULE
guest-5_vm2.mol2 : vm2 ligand conformer 67
          22          22           1
SMALL
USER_CHARGES
 
@<TRIPOS>ATOM
       1    C1      19.323692   18.977795   21.200445 C.3        1 MOL1        -0.1685
       2    H1      19.100958   18.608595   20.190055 H          1 MOL1         0.0832
       3    H2      18.432107   18.734924   21.792322 H          1 MOL1         0.0832
       4    C2      19.492349   20.514425   21.126440 C.3        1 MOL1        -0.1685
       5    H3      20.078954   20.765495   20.232218 H          1 MOL1         0.0832
       6    H4      18.502114   20.964485   20.972736 H          1 MOL1         0.0832
       7    C3      20.166547   21.181154   22.349079 C.3        1 MOL1        -0.1685
       8    H5      20.020027   22.267135   22.273547 H          1 MOL1         0.0832
       9    H6      21.252889   21.036290   22.290892 H          1 MOL1         0.0832
      10    C4      19.646993   20.706183   23.732278 C.3        1 MOL1        -0.1761
      11    H7      20.146105   21.315434   24.497839 H          1 MOL1         0.0832
      12    H8      18.578104   20.940217   23.815934 H          1 MOL1         0.0832
      13    C5      19.852094   19.203378   24.073592 C.3        1 MOL1         0.1218
      14    H9      18.900057   18.675465   23.925122 H          1 MOL1         0.0789
      15    C6      20.938755   18.493341   23.229633 C.3        1 MOL1        -0.1761
      16    H10     21.861427   19.086558   23.261145 H          1 MOL1         0.0832
      17    H11     21.195699   17.537647   23.705013 H          1 MOL1         0.0832
      18    C7      20.549715   18.203908   21.750511 C.3        1 MOL1        -0.1685
      19    H12     20.333541   17.130783   21.657648 H          1 MOL1         0.0832
      20    H13     21.419082   18.388154   21.104793 H          1 MOL1         0.0832
      21    O1      20.215856   19.097816   25.445023 O.3        1 MOL1        -0.5509
      22    H14     20.278070   18.141040   25.648032 H          1 MOL1         0.3779
@<TRIPOS>BOND
    1     1     2    1
    2     1     3    1
    3     1     4    1
    4     4     5    1
    5     4     6    1
    6     4     7    1
    7     7     8    1
    8     7     9    1
    9     7    10    1
   10    10    11    1
   11    10    12    1
   12    10    13    1
   13    13    14    1
   14    13    15    1
   15    15    16    1
   16    15    17    1
   17     1    18    1
   18    15    18    1
   19    18    19    1
   20    18    20    1
   21    13    21    1
   22    21    22    1
@<TRIPOS>SUBSTRUCTURE
       1 MOL1            1 RESIDUE      1      MOL     
@<SCITEGIC>MOL_PROPERTY
VM2 Rank
SciTegic.value.IntegerValue
67

@<SCITEGIC>MOL_PROPERTY
Conf_Id
SciTegic.value.IntegerValue
1279

@<SCITEGIC>MOL_PROPERTY
Probability
SciTegic.value.DoubleValue
0.01

@<SCITEGIC>MOL_PROPERTY
Sum Probability
SciTegic.value.DoubleValue
99.94

@<SCITEGIC>MOL_PROPERTY
Delta G
SciTegic.value.DoubleValue
3.734

@<SCITEGIC>MOL_PROPERTY
G
SciTegic.value.DoubleValue
51.097

@<SCITEGIC>MOL_PROPERTY
E
SciTegic.value.DoubleValue
24.247

@<SCITEGIC>MOL_PROPERTY
-TS
SciTegic.value.DoubleValue
26.850

@<SCITEGIC>MOL_PROPERTY
U+W
SciTegic.value.DoubleValue
6.362

@<SCITEGIC>MOL_PROPERTY
U
SciTegic.value.DoubleValue
8.609

@<SCITEGIC>MOL_PROPERTY
W
SciTegic.value.DoubleValue
-2.247

@<SCITEGIC>MOL_PROPERTY
W(PB)
SciTegic.value.DoubleValue
-4.257

@<SCITEGIC>MOL_PROPERTY
W(SA)
SciTegic.value.DoubleValue
2.010

@<SCITEGIC>MOL_PROPERTY
Valence
SciTegic.value.DoubleValue
13.314

@<SCITEGIC>MOL_PROPERTY
Coulomb
SciTegic.value.DoubleValue
-8.546

@<SCITEGIC>MOL_PROPERTY
VdW
SciTegic.value.DoubleValue
3.841

@<SCITEGIC>MOL_PROPERTY
VdW6
SciTegic.value.DoubleValue
-9.685

@<SCITEGIC>MOL_PROPERTY
VdW12
SciTegic.value.DoubleValue
13.527

@<SCITEGIC>MOL_PROPERTY
Bond
SciTegic.value.DoubleValue
0.435

@<SCITEGIC>MOL_PROPERTY
Angle
SciTegic.value.DoubleValue
3.374

@<SCITEGIC>MOL_PROPERTY
Pdih
SciTegic.value.DoubleValue
9.505

@<SCITEGIC>MOL_PROPERTY
Idih
SciTegic.value.DoubleValue
0.000

@<SCITEGIC>MOL_PROPERTY
Tether
SciTegic.value.DoubleValue
0.000

@<TRIPOS>MOLECULE
guest-5_vm2.mol2 : vm2 ligand conformer 68
          22          22           1
SMALL
USER_CHARGES
 
@<TRIPOS>ATOM
       1    C1      20.468706   19.353712   21.008436 C.3        1 MOL1        -0.1685
       2    H1      21.434523   19.797230   21.282841 H          1 MOL1         0.0832
       3    H2      20.564487   19.097543   19.944521 H          1 MOL1         0.0832
       4    C2      19.344785   20.409736   21.162256 C.3        1 MOL1        -0.1685
       5    H3      19.593779   21.255439   20.506770 H          1 MOL1         0.0832
       6    H4      18.401149   20.001468   20.775616 H          1 MOL1         0.0832
       7    C3      19.112829   20.961421   22.596226 C.3        1 MOL1        -0.1685
       8    H5      18.219808   20.499893   23.037229 H          1 MOL1         0.0832
       9    H6      18.868978   22.029540   22.516913 H          1 MOL1         0.0832
      10    C4      20.313060   20.796213   23.565700 C.3        1 MOL1        -0.1761
      11    H7      21.215877   21.202532   23.092963 H          1 MOL1         0.0832
      12    H8      20.140321   21.437296   24.440664 H          1 MOL1         0.0832
      13    C5      20.599893   19.345407   24.052475 C.3        1 MOL1         0.1218
      14    H9      21.680969   19.165548   23.963057 H          1 MOL1         0.0789
      15    C6      19.858180   18.217230   23.292621 C.3        1 MOL1        -0.1761
      16    H10     20.043801   17.263210   23.802967 H          1 MOL1         0.0832
      17    H11     18.775177   18.373363   23.365339 H          1 MOL1         0.0832
      18    C7      20.256450   18.045150   21.805452 C.3        1 MOL1        -0.1685
      19    H12     21.183608   17.458387   21.751585 H          1 MOL1         0.0832
      20    H13     19.487410   17.439857   21.306585 H          1 MOL1         0.0832
      21    O1      20.232097   19.249131   25.423835 O.3        1 MOL1        -0.5509
      22    H14     20.475554   18.347059   25.719094 H          1 MOL1         0.3779
@<TRIPOS>BOND
    1     1     2    1
    2     1     3    1
    3     1     4    1
    4     4     5    1
    5     4     6    1
    6     4     7    1
    7     7     8    1
    8     7     9    1
    9     7    10    1
   10    10    11    1
   11    10    12    1
   12    10    13    1
   13    13    14    1
   14    13    15    1
   15    15    16    1
   16    15    17    1
   17     1    18    1
   18    15    18    1
   19    18    19    1
   20    18    20    1
   21    13    21    1
   22    21    22    1
@<TRIPOS>SUBSTRUCTURE
       1 MOL1            1 RESIDUE      1      MOL     
@<SCITEGIC>MOL_PROPERTY
VM2 Rank
SciTegic.value.IntegerValue
68

@<SCITEGIC>MOL_PROPERTY
Conf_Id
SciTegic.value.IntegerValue
353

@<SCITEGIC>MOL_PROPERTY
Probability
SciTegic.value.DoubleValue
0.01

@<SCITEGIC>MOL_PROPERTY
Sum Probability
SciTegic.value.DoubleValue
99.95

@<SCITEGIC>MOL_PROPERTY
Delta G
SciTegic.value.DoubleValue
3.743

@<SCITEGIC>MOL_PROPERTY
G
SciTegic.value.DoubleValue
51.106

@<SCITEGIC>MOL_PROPERTY
E
SciTegic.value.DoubleValue
24.304

@<SCITEGIC>MOL_PROPERTY
-TS
SciTegic.value.DoubleValue
26.802

@<SCITEGIC>MOL_PROPERTY
U+W
SciTegic.value.DoubleValue
6.419

@<SCITEGIC>MOL_PROPERTY
U
SciTegic.value.DoubleValue
8.780

@<SCITEGIC>MOL_PROPERTY
W
SciTegic.value.DoubleValue
-2.361

@<SCITEGIC>MOL_PROPERTY
W(PB)
SciTegic.value.DoubleValue
-4.377

@<SCITEGIC>MOL_PROPERTY
W(SA)
SciTegic.value.DoubleValue
2.016

@<SCITEGIC>MOL_PROPERTY
Valence
SciTegic.value.DoubleValue
13.327

@<SCITEGIC>MOL_PROPERTY
Coulomb
SciTegic.value.DoubleValue
-8.388

@<SCITEGIC>MOL_PROPERTY
VdW
SciTegic.value.DoubleValue
3.841

@<SCITEGIC>MOL_PROPERTY
VdW6
SciTegic.value.DoubleValue
-9.744

@<SCITEGIC>MOL_PROPERTY
VdW12
SciTegic.value.DoubleValue
13.585

@<SCITEGIC>MOL_PROPERTY
Bond
SciTegic.value.DoubleValue
0.436

@<SCITEGIC>MOL_PROPERTY
Angle
SciTegic.value.DoubleValue
3.477

@<SCITEGIC>MOL_PROPERTY
Pdih
SciTegic.value.DoubleValue
9.415

@<SCITEGIC>MOL_PROPERTY
Idih
SciTegic.value.DoubleValue
0.000

@<SCITEGIC>MOL_PROPERTY
Tether
SciTegic.value.DoubleValue
0.000

@<TRIPOS>MOLECULE
guest-5_vm2.mol2 : vm2 ligand conformer 69
          22          22           1
SMALL
USER_CHARGES
 
@<TRIPOS>ATOM
       1    C1      19.352353   19.069532   21.130577 C.3        1 MOL1        -0.1685
       2    H1      19.175483   18.744103   20.096398 H          1 MOL1         0.0832
       3    H2      18.369913   19.018052   21.617318 H          1 MOL1         0.0832
       4    C2      19.849555   20.537364   21.107669 C.3        1 MOL1        -0.1685
       5    H3      20.775214   20.602858   20.519885 H          1 MOL1         0.0832
       6    H4      19.105592   21.129906   20.557861 H          1 MOL1         0.0832
       7    C3      20.074771   21.207834   22.491356 C.3        1 MOL1        -0.1685
       8    H5      19.757461   22.257002   22.419287 H          1 MOL1         0.0832
       9    H6      21.147992   21.252150   22.717810 H          1 MOL1         0.0832
      10    C4      19.323836   20.541633   23.674557 C.3        1 MOL1        -0.1761
      11    H7      19.342210   21.232920   24.527887 H          1 MOL1         0.0832
      12    H8      18.262212   20.441526   23.416616 H          1 MOL1         0.0832
      13    C5      19.871048   19.158664   24.134615 C.3        1 MOL1         0.1218
      14    H9      19.014369   18.481934   24.265773 H          1 MOL1         0.0789
      15    C6      20.882200   18.478451   23.178004 C.3        1 MOL1        -0.1761
      16    H10     21.749577   19.133283   23.031486 H          1 MOL1         0.0832
      17    H11     21.282210   17.579374   23.664530 H          1 MOL1         0.0832
      18    C7      20.313571   18.058929   21.799461 C.3        1 MOL1        -0.1685
      19    H12     21.154961   17.859473   21.122000 H          1 MOL1         0.0832
      20    H13     19.782462   17.103633   21.909671 H          1 MOL1         0.0832
      21    O1      20.518665   19.325593   25.390761 O.3        1 MOL1        -0.5509
      22    H14     20.802011   18.434358   25.683321 H          1 MOL1         0.3779
@<TRIPOS>BOND
    1     1     2    1
    2     1     3    1
    3     1     4    1
    4     4     5    1
    5     4     6    1
    6     4     7    1
    7     7     8    1
    8     7     9    1
    9     7    10    1
   10    10    11    1
   11    10    12    1
   12    10    13    1
   13    13    14    1
   14    13    15    1
   15    15    16    1
   16    15    17    1
   17     1    18    1
   18    15    18    1
   19    18    19    1
   20    18    20    1
   21    13    21    1
   22    21    22    1
@<TRIPOS>SUBSTRUCTURE
       1 MOL1            1 RESIDUE      1      MOL     
@<SCITEGIC>MOL_PROPERTY
VM2 Rank
SciTegic.value.IntegerValue
69

@<SCITEGIC>MOL_PROPERTY
Conf_Id
SciTegic.value.IntegerValue
2048

@<SCITEGIC>MOL_PROPERTY
Probability
SciTegic.value.DoubleValue
0.01

@<SCITEGIC>MOL_PROPERTY
Sum Probability
SciTegic.value.DoubleValue
99.96

@<SCITEGIC>MOL_PROPERTY
Delta G
SciTegic.value.DoubleValue
3.746

@<SCITEGIC>MOL_PROPERTY
G
SciTegic.value.DoubleValue
51.108

@<SCITEGIC>MOL_PROPERTY
E
SciTegic.value.DoubleValue
24.304

@<SCITEGIC>MOL_PROPERTY
-TS
SciTegic.value.DoubleValue
26.804

@<SCITEGIC>MOL_PROPERTY
U+W
SciTegic.value.DoubleValue
6.419

@<SCITEGIC>MOL_PROPERTY
U
SciTegic.value.DoubleValue
8.781

@<SCITEGIC>MOL_PROPERTY
W
SciTegic.value.DoubleValue
-2.362

@<SCITEGIC>MOL_PROPERTY
W(PB)
SciTegic.value.DoubleValue
-4.364

@<SCITEGIC>MOL_PROPERTY
W(SA)
SciTegic.value.DoubleValue
2.002

@<SCITEGIC>MOL_PROPERTY
Valence
SciTegic.value.DoubleValue
13.329

@<SCITEGIC>MOL_PROPERTY
Coulomb
SciTegic.value.DoubleValue
-8.386

@<SCITEGIC>MOL_PROPERTY
VdW
SciTegic.value.DoubleValue
3.839

@<SCITEGIC>MOL_PROPERTY
VdW6
SciTegic.value.DoubleValue
-9.745

@<SCITEGIC>MOL_PROPERTY
VdW12
SciTegic.value.DoubleValue
13.584

@<SCITEGIC>MOL_PROPERTY
Bond
SciTegic.value.DoubleValue
0.436

@<SCITEGIC>MOL_PROPERTY
Angle
SciTegic.value.DoubleValue
3.478

@<SCITEGIC>MOL_PROPERTY
Pdih
SciTegic.value.DoubleValue
9.415

@<SCITEGIC>MOL_PROPERTY
Idih
SciTegic.value.DoubleValue
0.000

@<SCITEGIC>MOL_PROPERTY
Tether
SciTegic.value.DoubleValue
0.000

@<TRIPOS>MOLECULE
guest-5_vm2.mol2 : vm2 ligand conformer 70
          22          22           1
SMALL
USER_CHARGES
 
@<TRIPOS>ATOM
       1    C1      19.645788   19.098445   20.927011 C.3        1 MOL1        -0.1685
       2    H1      20.174244   18.708292   20.046449 H          1 MOL1         0.0832
       3    H2      18.590393   19.172849   20.631664 H          1 MOL1         0.0832
       4    C2      20.204513   20.514832   21.216705 C.3        1 MOL1        -0.1685
       5    H3      21.285341   20.457252   21.399062 H          1 MOL1         0.0832
       6    H4      20.100716   21.124120   20.308570 H          1 MOL1         0.0832
       7    C3      19.523038   21.265421   22.384982 C.3        1 MOL1        -0.1685
       8    H5      18.536664   21.621412   22.057861 H          1 MOL1         0.0832
       9    H6      20.112084   22.166992   22.601796 H          1 MOL1         0.0832
      10    C4      19.343704   20.456844   23.694093 C.3        1 MOL1        -0.1761
      11    H7      19.143671   21.169453   24.504792 H          1 MOL1         0.0832
      12    H8      18.437374   19.843507   23.623437 H          1 MOL1         0.0832
      13    C5      20.546240   19.565966   24.094682 C.3        1 MOL1         0.1218
      14    H9      21.439170   20.204287   24.160169 H          1 MOL1         0.0789
      15    C6      20.869505   18.386228   23.131643 C.3        1 MOL1        -0.1761
      16    H10     21.819842   18.587281   22.621699 H          1 MOL1         0.0832
      17    H11     21.055243   17.482066   23.726940 H          1 MOL1         0.0832
      18    C7      19.783140   18.058327   22.073351 C.3        1 MOL1        -0.1685
      19    H12     20.012378   17.082274   21.624568 H          1 MOL1         0.0832
      20    H13     18.815749   17.919263   22.573210 H          1 MOL1         0.0832
      21    O1      20.270072   19.031937   25.384533 O.3        1 MOL1        -0.5509
      22    H14     20.126994   19.795435   25.981840 H          1 MOL1         0.3779
@<TRIPOS>BOND
    1     1     2    1
    2     1     3    1
    3     1     4    1
    4     4     5    1
    5     4     6    1
    6     4     7    1
    7     7     8    1
    8     7     9    1
    9     7    10    1
   10    10    11    1
   11    10    12    1
   12    10    13    1
   13    13    14    1
   14    13    15    1
   15    15    16    1
   16    15    17    1
   17     1    18    1
   18    15    18    1
   19    18    19    1
   20    18    20    1
   21    13    21    1
   22    21    22    1
@<TRIPOS>SUBSTRUCTURE
       1 MOL1            1 RESIDUE      1      MOL     
@<SCITEGIC>MOL_PROPERTY
VM2 Rank
SciTegic.value.IntegerValue
70

@<SCITEGIC>MOL_PROPERTY
Conf_Id
SciTegic.value.IntegerValue
1117

@<SCITEGIC>MOL_PROPERTY
Probability
SciTegic.value.DoubleValue
0.01

@<SCITEGIC>MOL_PROPERTY
Sum Probability
SciTegic.value.DoubleValue
99.97

@<SCITEGIC>MOL_PROPERTY
Delta G
SciTegic.value.DoubleValue
3.757

@<SCITEGIC>MOL_PROPERTY
G
SciTegic.value.DoubleValue
51.119

@<SCITEGIC>MOL_PROPERTY
E
SciTegic.value.DoubleValue
24.304

@<SCITEGIC>MOL_PROPERTY
-TS
SciTegic.value.DoubleValue
26.816

@<SCITEGIC>MOL_PROPERTY
U+W
SciTegic.value.DoubleValue
6.419

@<SCITEGIC>MOL_PROPERTY
U
SciTegic.value.DoubleValue
8.781

@<SCITEGIC>MOL_PROPERTY
W
SciTegic.value.DoubleValue
-2.362

@<SCITEGIC>MOL_PROPERTY
W(PB)
SciTegic.value.DoubleValue
-4.380

@<SCITEGIC>MOL_PROPERTY
W(SA)
SciTegic.value.DoubleValue
2.018

@<SCITEGIC>MOL_PROPERTY
Valence
SciTegic.value.DoubleValue
13.329

@<SCITEGIC>MOL_PROPERTY
Coulomb
SciTegic.value.DoubleValue
-8.387

@<SCITEGIC>MOL_PROPERTY
VdW
SciTegic.value.DoubleValue
3.839

@<SCITEGIC>MOL_PROPERTY
VdW6
SciTegic.value.DoubleValue
-9.745

@<SCITEGIC>MOL_PROPERTY
VdW12
SciTegic.value.DoubleValue
13.584

@<SCITEGIC>MOL_PROPERTY
Bond
SciTegic.value.DoubleValue
0.436

@<SCITEGIC>MOL_PROPERTY
Angle
SciTegic.value.DoubleValue
3.478

@<SCITEGIC>MOL_PROPERTY
Pdih
SciTegic.value.DoubleValue
9.415

@<SCITEGIC>MOL_PROPERTY
Idih
SciTegic.value.DoubleValue
0.000

@<SCITEGIC>MOL_PROPERTY
Tether
SciTegic.value.DoubleValue
0.000

@<TRIPOS>MOLECULE
guest-5_vm2.mol2 : vm2 ligand conformer 71
          22          22           1
SMALL
USER_CHARGES
 
@<TRIPOS>ATOM
       1    C1      20.203672   19.354880   20.895185 C.3        1 MOL1        -0.1685
       2    H1      21.067966   20.012541   20.733764 H          1 MOL1         0.0832
       3    H2      19.949055   18.969489   19.898436 H          1 MOL1         0.0832
       4    C2      19.010853   20.192649   21.421613 C.3        1 MOL1        -0.1685
       5    H3      18.648938   20.838841   20.610305 H          1 MOL1         0.0832
       6    H4      18.169175   19.526151   21.651223 H          1 MOL1         0.0832
       7    C3      19.326645   21.089247   22.651902 C.3        1 MOL1        -0.1685
       8    H5      18.455620   21.103075   23.321257 H          1 MOL1         0.0832
       9    H6      19.448172   22.122584   22.299787 H          1 MOL1         0.0832
      10    C4      20.596912   20.718326   23.464125 C.3        1 MOL1        -0.1761
      11    H7      21.481356   20.794440   22.820314 H          1 MOL1         0.0832
      12    H8      20.751019   21.479798   24.239584 H          1 MOL1         0.0832
      13    C5      20.585859   19.325061   24.135380 C.3        1 MOL1         0.1218
      14    H9      21.619593   19.097340   24.432989 H          1 MOL1         0.0789
      15    C6      20.079790   18.164752   23.248905 C.3        1 MOL1        -0.1761
      16    H10     20.368599   17.223107   23.733155 H          1 MOL1         0.0832
      17    H11     18.982847   18.158771   23.243292 H          1 MOL1         0.0832
      18    C7      20.613124   18.150973   21.790854 C.3        1 MOL1        -0.1685
      19    H12     21.708053   18.063421   21.800920 H          1 MOL1         0.0832
      20    H13     20.246891   17.231663   21.313835 H          1 MOL1         0.0832
      21    O1      19.769146   19.382112   25.299036 O.3        1 MOL1        -0.5509
      22    H14     20.110130   20.118833   25.846960 H          1 MOL1         0.3779
@<TRIPOS>BOND
    1     1     2    1
    2     1     3    1
    3     1     4    1
    4     4     5    1
    5     4     6    1
    6     4     7    1
    7     7     8    1
    8     7     9    1
    9     7    10    1
   10    10    11    1
   11    10    12    1
   12    10    13    1
   13    13    14    1
   14    13    15    1
   15    15    16    1
   16    15    17    1
   17     1    18    1
   18    15    18    1
   19    18    19    1
   20    18    20    1
   21    13    21    1
   22    21    22    1
@<TRIPOS>SUBSTRUCTURE
       1 MOL1            1 RESIDUE      1      MOL     
@<SCITEGIC>MOL_PROPERTY
VM2 Rank
SciTegic.value.IntegerValue
71

@<SCITEGIC>MOL_PROPERTY
Conf_Id
SciTegic.value.IntegerValue
877

@<SCITEGIC>MOL_PROPERTY
Probability
SciTegic.value.DoubleValue
0.01

@<SCITEGIC>MOL_PROPERTY
Sum Probability
SciTegic.value.DoubleValue
99.98

@<SCITEGIC>MOL_PROPERTY
Delta G
SciTegic.value.DoubleValue
3.852

@<SCITEGIC>MOL_PROPERTY
G
SciTegic.value.DoubleValue
51.214

@<SCITEGIC>MOL_PROPERTY
E
SciTegic.value.DoubleValue
24.416

@<SCITEGIC>MOL_PROPERTY
-TS
SciTegic.value.DoubleValue
26.798

@<SCITEGIC>MOL_PROPERTY
U+W
SciTegic.value.DoubleValue
6.531

@<SCITEGIC>MOL_PROPERTY
U
SciTegic.value.DoubleValue
8.919

@<SCITEGIC>MOL_PROPERTY
W
SciTegic.value.DoubleValue
-2.388

@<SCITEGIC>MOL_PROPERTY
W(PB)
SciTegic.value.DoubleValue
-4.391

@<SCITEGIC>MOL_PROPERTY
W(SA)
SciTegic.value.DoubleValue
2.003

@<SCITEGIC>MOL_PROPERTY
Valence
SciTegic.value.DoubleValue
13.464

@<SCITEGIC>MOL_PROPERTY
Coulomb
SciTegic.value.DoubleValue
-8.153

@<SCITEGIC>MOL_PROPERTY
VdW
SciTegic.value.DoubleValue
3.608

@<SCITEGIC>MOL_PROPERTY
VdW6
SciTegic.value.DoubleValue
-9.940

@<SCITEGIC>MOL_PROPERTY
VdW12
SciTegic.value.DoubleValue
13.548

@<SCITEGIC>MOL_PROPERTY
Bond
SciTegic.value.DoubleValue
0.437

@<SCITEGIC>MOL_PROPERTY
Angle
SciTegic.value.DoubleValue
3.544

@<SCITEGIC>MOL_PROPERTY
Pdih
SciTegic.value.DoubleValue
9.483

@<SCITEGIC>MOL_PROPERTY
Idih
SciTegic.value.DoubleValue
0.000

@<SCITEGIC>MOL_PROPERTY
Tether
SciTegic.value.DoubleValue
0.000

@<TRIPOS>MOLECULE
guest-5_vm2.mol2 : vm2 ligand conformer 72
          22          22           1
SMALL
USER_CHARGES
 
@<TRIPOS>ATOM
       1    C1      20.510558   19.274272   21.072019 C.3        1 MOL1        -0.1685
       2    H1      21.478340   19.774579   21.207886 H          1 MOL1         0.0832
       3    H2      20.541255   18.867525   20.052027 H          1 MOL1         0.0832
       4    C2      19.371858   20.322253   21.155081 C.3        1 MOL1        -0.1685
       5    H3      19.417223   20.961263   20.262626 H          1 MOL1         0.0832
       6    H4      18.401622   19.812258   21.090878 H          1 MOL1         0.0832
       7    C3      19.407042   21.239398   22.410802 C.3        1 MOL1        -0.1685
       8    H5      18.380835   21.408161   22.764436 H          1 MOL1         0.0832
       9    H6      19.779761   22.225515   22.101840 H          1 MOL1         0.0832
      10    C4      20.290554   20.755561   23.592258 C.3        1 MOL1        -0.1761
      11    H7      21.334867   20.674655   23.266342 H          1 MOL1         0.0832
      12    H8      20.291800   21.533715   24.366261 H          1 MOL1         0.0832
      13    C5      19.852304   19.430842   24.256563 C.3        1 MOL1         0.1218
      14    H9      18.980895   19.643424   24.892560 H          1 MOL1         0.0789
      15    C6      19.445535   18.301184   23.281719 C.3        1 MOL1        -0.1761
      16    H10     19.378255   17.360622   23.843629 H          1 MOL1         0.0832
      17    H11     18.424037   18.487978   22.929340 H          1 MOL1         0.0832
      18    C7      20.385891   18.084665   22.065276 C.3        1 MOL1        -0.1685
      19    H12     20.014248   17.212934   21.509842 H          1 MOL1         0.0832
      20    H13     21.386950   17.806058   22.421895 H          1 MOL1         0.0832
      21    O1      20.922258   18.969824   25.073282 O.3        1 MOL1        -0.5509
      22    H14     20.621407   18.134699   25.487171 H          1 MOL1         0.3779
@<TRIPOS>BOND
    1     1     2    1
    2     1     3    1
    3     1     4    1
    4     4     5    1
    5     4     6    1
    6     4     7    1
    7     7     8    1
    8     7     9    1
    9     7    10    1
   10    10    11    1
   11    10    12    1
   12    10    13    1
   13    13    14    1
   14    13    15    1
   15    15    16    1
   16    15    17    1
   17     1    18    1
   18    15    18    1
   19    18    19    1
   20    18    20    1
   21    13    21    1
   22    21    22    1
@<TRIPOS>SUBSTRUCTURE
       1 MOL1            1 RESIDUE      1      MOL     
@<SCITEGIC>MOL_PROPERTY
VM2 Rank
SciTegic.value.IntegerValue
72

@<SCITEGIC>MOL_PROPERTY
Conf_Id
SciTegic.value.IntegerValue
2126

@<SCITEGIC>MOL_PROPERTY
Probability
SciTegic.value.DoubleValue
0.01

@<SCITEGIC>MOL_PROPERTY
Sum Probability
SciTegic.value.DoubleValue
99.98

@<SCITEGIC>MOL_PROPERTY
Delta G
SciTegic.value.DoubleValue
3.872

@<SCITEGIC>MOL_PROPERTY
G
SciTegic.value.DoubleValue
51.234

@<SCITEGIC>MOL_PROPERTY
E
SciTegic.value.DoubleValue
24.437

@<SCITEGIC>MOL_PROPERTY
-TS
SciTegic.value.DoubleValue
26.797

@<SCITEGIC>MOL_PROPERTY
U+W
SciTegic.value.DoubleValue
6.552

@<SCITEGIC>MOL_PROPERTY
U
SciTegic.value.DoubleValue
8.919

@<SCITEGIC>MOL_PROPERTY
W
SciTegic.value.DoubleValue
-2.366

@<SCITEGIC>MOL_PROPERTY
W(PB)
SciTegic.value.DoubleValue
-4.372

@<SCITEGIC>MOL_PROPERTY
W(SA)
SciTegic.value.DoubleValue
2.005

@<SCITEGIC>MOL_PROPERTY
Valence
SciTegic.value.DoubleValue
13.464

@<SCITEGIC>MOL_PROPERTY
Coulomb
SciTegic.value.DoubleValue
-8.154

@<SCITEGIC>MOL_PROPERTY
VdW
SciTegic.value.DoubleValue
3.608

@<SCITEGIC>MOL_PROPERTY
VdW6
SciTegic.value.DoubleValue
-9.940

@<SCITEGIC>MOL_PROPERTY
VdW12
SciTegic.value.DoubleValue
13.548

@<SCITEGIC>MOL_PROPERTY
Bond
SciTegic.value.DoubleValue
0.437

@<SCITEGIC>MOL_PROPERTY
Angle
SciTegic.value.DoubleValue
3.544

@<SCITEGIC>MOL_PROPERTY
Pdih
SciTegic.value.DoubleValue
9.483

@<SCITEGIC>MOL_PROPERTY
Idih
SciTegic.value.DoubleValue
0.000

@<SCITEGIC>MOL_PROPERTY
Tether
SciTegic.value.DoubleValue
0.000

@<TRIPOS>MOLECULE
guest-5_vm2.mol2 : vm2 ligand conformer 73
          22          22           1
SMALL
USER_CHARGES
 
@<TRIPOS>ATOM
       1    C1      19.544055   19.176660   20.972309 C.3        1 MOL1        -0.1685
       2    H1      19.734626   18.911814   19.923306 H          1 MOL1         0.0832
       3    H2      18.455867   19.306495   21.039820 H          1 MOL1         0.0832
       4    C2      20.243199   20.525744   21.277214 C.3        1 MOL1        -0.1685
       5    H3      21.331484   20.380823   21.280489 H          1 MOL1         0.0832
       6    H4      20.050822   21.217931   20.446168 H          1 MOL1         0.0832
       7    C3      19.797455   21.216254   22.596994 C.3        1 MOL1        -0.1685
       8    H5      19.106639   22.030779   22.340353 H          1 MOL1         0.0832
       9    H6      20.667250   21.699060   23.063118 H          1 MOL1         0.0832
      10    C4      19.088026   20.311065   23.640182 C.3        1 MOL1        -0.1761
      11    H7      18.746869   20.938806   24.473538 H          1 MOL1         0.0832
      12    H8      18.168117   19.900437   23.206976 H          1 MOL1         0.0832
      13    C5      19.933618   19.148852   24.211282 C.3        1 MOL1         0.1218
      14    H9      19.241342   18.454730   24.709261 H          1 MOL1         0.0789
      15    C6      20.746346   18.345262   23.171117 C.3        1 MOL1        -0.1761
      16    H10     21.669825   18.885967   22.929896 H          1 MOL1         0.0832
      17    H11     21.076432   17.414810   23.650603 H          1 MOL1         0.0832
      18    C7      19.992244   17.983073   21.863190 C.3        1 MOL1        -0.1685
      19    H12     20.655629   17.342740   21.265948 H          1 MOL1         0.0832
      20    H13     19.118275   17.362256   22.102776 H          1 MOL1         0.0832
      21    O1      20.841057   19.671089   25.174712 O.3        1 MOL1        -0.5509
      22    H14     20.305338   20.170569   25.824925 H          1 MOL1         0.3779
@<TRIPOS>BOND
    1     1     2    1
    2     1     3    1
    3     1     4    1
    4     4     5    1
    5     4     6    1
    6     4     7    1
    7     7     8    1
    8     7     9    1
    9     7    10    1
   10    10    11    1
   11    10    12    1
   12    10    13    1
   13    13    14    1
   14    13    15    1
   15    15    16    1
   16    15    17    1
   17     1    18    1
   18    15    18    1
   19    18    19    1
   20    18    20    1
   21    13    21    1
   22    21    22    1
@<TRIPOS>SUBSTRUCTURE
       1 MOL1            1 RESIDUE      1      MOL     
@<SCITEGIC>MOL_PROPERTY
VM2 Rank
SciTegic.value.IntegerValue
73

@<SCITEGIC>MOL_PROPERTY
Conf_Id
SciTegic.value.IntegerValue
1364

@<SCITEGIC>MOL_PROPERTY
Probability
SciTegic.value.DoubleValue
0.01

@<SCITEGIC>MOL_PROPERTY
Sum Probability
SciTegic.value.DoubleValue
99.99

@<SCITEGIC>MOL_PROPERTY
Delta G
SciTegic.value.DoubleValue
3.881

@<SCITEGIC>MOL_PROPERTY
G
SciTegic.value.DoubleValue
51.243

@<SCITEGIC>MOL_PROPERTY
E
SciTegic.value.DoubleValue
24.447

@<SCITEGIC>MOL_PROPERTY
-TS
SciTegic.value.DoubleValue
26.797

@<SCITEGIC>MOL_PROPERTY
U+W
SciTegic.value.DoubleValue
6.562

@<SCITEGIC>MOL_PROPERTY
U
SciTegic.value.DoubleValue
8.919

@<SCITEGIC>MOL_PROPERTY
W
SciTegic.value.DoubleValue
-2.357

@<SCITEGIC>MOL_PROPERTY
W(PB)
SciTegic.value.DoubleValue
-4.378

@<SCITEGIC>MOL_PROPERTY
W(SA)
SciTegic.value.DoubleValue
2.021

@<SCITEGIC>MOL_PROPERTY
Valence
SciTegic.value.DoubleValue
13.464

@<SCITEGIC>MOL_PROPERTY
Coulomb
SciTegic.value.DoubleValue
-8.154

@<SCITEGIC>MOL_PROPERTY
VdW
SciTegic.value.DoubleValue
3.609

@<SCITEGIC>MOL_PROPERTY
VdW6
SciTegic.value.DoubleValue
-9.940

@<SCITEGIC>MOL_PROPERTY
VdW12
SciTegic.value.DoubleValue
13.548

@<SCITEGIC>MOL_PROPERTY
Bond
SciTegic.value.DoubleValue
0.437

@<SCITEGIC>MOL_PROPERTY
Angle
SciTegic.value.DoubleValue
3.544

@<SCITEGIC>MOL_PROPERTY
Pdih
SciTegic.value.DoubleValue
9.483

@<SCITEGIC>MOL_PROPERTY
Idih
SciTegic.value.DoubleValue
0.000

@<SCITEGIC>MOL_PROPERTY
Tether
SciTegic.value.DoubleValue
0.000

@<TRIPOS>MOLECULE
guest-5_vm2.mol2 : vm2 ligand conformer 74
          22          22           1
SMALL
USER_CHARGES
 
@<TRIPOS>ATOM
       1    C1      19.286805   19.035889   21.215493 C.3        1 MOL1        -0.1685
       2    H1      19.182248   18.602923   20.211314 H          1 MOL1         0.0832
       3    H2      18.259156   19.147486   21.585413 H          1 MOL1         0.0832
       4    C2      19.944018   20.433618   21.088120 C.3        1 MOL1        -0.1685
       5    H3      20.993456   20.316896   20.787050 H          1 MOL1         0.0832
       6    H4      19.467419   20.971068   20.256934 H          1 MOL1         0.0832
       7    C3      19.852822   21.326047   22.358773 C.3        1 MOL1        -0.1685
       8    H5      19.083743   22.090605   22.183353 H          1 MOL1         0.0832
       9    H6      20.795145   21.876841   22.482447 H          1 MOL1         0.0832
      10    C4      19.496889   20.601480   23.685001 C.3        1 MOL1        -0.1761
      11    H7      19.380036   21.356749   24.472730 H          1 MOL1         0.0832
      12    H8      18.512167   20.126339   23.596041 H          1 MOL1         0.0832
      13    C5      20.529519   19.562638   24.177718 C.3        1 MOL1         0.1218
      14    H9      21.377802   20.109594   24.613941 H          1 MOL1         0.0789
      15    C6      21.099000   18.623510   23.088860 C.3        1 MOL1        -0.1761
      16    H10     21.872651   19.160528   22.527070 H          1 MOL1         0.0832
      17    H11     21.633227   17.800206   23.580488 H          1 MOL1         0.0832
      18    C7      20.061432   18.021352   22.103103 C.3        1 MOL1        -0.1685
      19    H12     20.596810   17.327104   21.441339 H          1 MOL1         0.0832
      20    H13     19.341529   17.406426   22.660345 H          1 MOL1         0.0832
      21    O1      19.915515   18.773467   25.189932 O.3        1 MOL1        -0.5509
      22    H14     20.587620   18.127460   25.490265 H          1 MOL1         0.3779
@<TRIPOS>BOND
    1     1     2    1
    2     1     3    1
    3     1     4    1
    4     4     5    1
    5     4     6    1
    6     4     7    1
    7     7     8    1
    8     7     9    1
    9     7    10    1
   10    10    11    1
   11    10    12    1
   12    10    13    1
   13    13    14    1
   14    13    15    1
   15    15    16    1
   16    15    17    1
   17     1    18    1
   18    15    18    1
   19    18    19    1
   20    18    20    1
   21    13    21    1
   22    21    22    1
@<TRIPOS>SUBSTRUCTURE
       1 MOL1            1 RESIDUE      1      MOL     
@<SCITEGIC>MOL_PROPERTY
VM2 Rank
SciTegic.value.IntegerValue
74

@<SCITEGIC>MOL_PROPERTY
Conf_Id
SciTegic.value.IntegerValue
1954

@<SCITEGIC>MOL_PROPERTY
Probability
SciTegic.value.DoubleValue
0.01

@<SCITEGIC>MOL_PROPERTY
Sum Probability
SciTegic.value.DoubleValue
100.00

@<SCITEGIC>MOL_PROPERTY
Delta G
SciTegic.value.DoubleValue
3.907

@<SCITEGIC>MOL_PROPERTY
G
SciTegic.value.DoubleValue
51.270

@<SCITEGIC>MOL_PROPERTY
E
SciTegic.value.DoubleValue
24.473

@<SCITEGIC>MOL_PROPERTY
-TS
SciTegic.value.DoubleValue
26.797

@<SCITEGIC>MOL_PROPERTY
U+W
SciTegic.value.DoubleValue
6.588

@<SCITEGIC>MOL_PROPERTY
U
SciTegic.value.DoubleValue
8.919

@<SCITEGIC>MOL_PROPERTY
W
SciTegic.value.DoubleValue
-2.331

@<SCITEGIC>MOL_PROPERTY
W(PB)
SciTegic.value.DoubleValue
-4.332

@<SCITEGIC>MOL_PROPERTY
W(SA)
SciTegic.value.DoubleValue
2.001

@<SCITEGIC>MOL_PROPERTY
Valence
SciTegic.value.DoubleValue
13.464

@<SCITEGIC>MOL_PROPERTY
Coulomb
SciTegic.value.DoubleValue
-8.153

@<SCITEGIC>MOL_PROPERTY
VdW
SciTegic.value.DoubleValue
3.608

@<SCITEGIC>MOL_PROPERTY
VdW6
SciTegic.value.DoubleValue
-9.941

@<SCITEGIC>MOL_PROPERTY
VdW12
SciTegic.value.DoubleValue
13.549

@<SCITEGIC>MOL_PROPERTY
Bond
SciTegic.value.DoubleValue
0.437

@<SCITEGIC>MOL_PROPERTY
Angle
SciTegic.value.DoubleValue
3.544

@<SCITEGIC>MOL_PROPERTY
Pdih
SciTegic.value.DoubleValue
9.483

@<SCITEGIC>MOL_PROPERTY
Idih
SciTegic.value.DoubleValue
0.000

@<SCITEGIC>MOL_PROPERTY
Tether
SciTegic.value.DoubleValue
0.000

@<TRIPOS>MOLECULE
guest-5_vm2.mol2 : vm2 ligand conformer 75
          22          22           1
SMALL
USER_CHARGES
 
@<TRIPOS>ATOM
       1    C1      19.334805   18.777409   21.429398 C.3        1 MOL1        -0.1685
       2    H1      18.661432   18.082720   21.949043 H          1 MOL1         0.0832
       3    H2      19.186367   18.569600   20.360722 H          1 MOL1         0.0832
       4    C2      18.897677   20.247854   21.695028 C.3        1 MOL1        -0.1685
       5    H3      18.559921   20.676459   20.741347 H          1 MOL1         0.0832
       6    H4      18.011884   20.267967   22.343887 H          1 MOL1         0.0832
       7    C3      19.987056   21.185874   22.274788 C.3        1 MOL1        -0.1685
       8    H5      19.614523   22.218339   22.230513 H          1 MOL1         0.0832
       9    H6      20.866490   21.181840   21.618929 H          1 MOL1         0.0832
      10    C4      20.423160   20.900380   23.738732 C.3        1 MOL1        -0.1761
      11    H7      21.420104   21.333818   23.890302 H          1 MOL1         0.0832
      12    H8      19.759167   21.457295   24.413235 H          1 MOL1         0.0832
      13    C5      20.450073   19.428968   24.220789 C.3        1 MOL1         0.1218
      14    H9      20.989944   19.416468   25.178472 H          1 MOL1         0.0789
      15    C6      21.161369   18.415983   23.290163 C.3        1 MOL1        -0.1761
      16    H10     22.245572   18.555603   23.388895 H          1 MOL1         0.0832
      17    H11     20.961602   17.409836   23.682282 H          1 MOL1         0.0832
      18    C7      20.805424   18.432770   21.777610 C.3        1 MOL1        -0.1685
      19    H12     21.481316   19.113766   21.245650 H          1 MOL1         0.0832
      20    H13     21.035012   17.439915   21.367423 H          1 MOL1         0.0832
      21    O1      19.126436   18.988761   24.480493 O.3        1 MOL1        -0.5509
      22    H14     18.691597   19.017607   23.604698 H          1 MOL1         0.3779
@<TRIPOS>BOND
    1     1     2    1
    2     1     3    1
    3     1     4    1
    4     4     5    1
    5     4     6    1
    6     4     7    1
    7     7     8    1
    8     7     9    1
    9     7    10    1
   10    10    11    1
   11    10    12    1
   12    10    13    1
   13    13    14    1
   14    13    15    1
   15    15    16    1
   16    15    17    1
   17     1    18    1
   18    15    18    1
   19    18    19    1
   20    18    20    1
   21    13    21    1
   22    21    22    1
@<TRIPOS>SUBSTRUCTURE
       1 MOL1            1 RESIDUE      1      MOL     
@<SCITEGIC>MOL_PROPERTY
VM2 Rank
SciTegic.value.IntegerValue
75

@<SCITEGIC>MOL_PROPERTY
Conf_Id
SciTegic.value.IntegerValue
1376

@<SCITEGIC>MOL_PROPERTY
Probability
SciTegic.value.DoubleValue
0.00

@<SCITEGIC>MOL_PROPERTY
Sum Probability
SciTegic.value.DoubleValue
100.00

@<SCITEGIC>MOL_PROPERTY
Delta G
SciTegic.value.DoubleValue
4.825

@<SCITEGIC>MOL_PROPERTY
G
SciTegic.value.DoubleValue
52.187

@<SCITEGIC>MOL_PROPERTY
E
SciTegic.value.DoubleValue
25.238

@<SCITEGIC>MOL_PROPERTY
-TS
SciTegic.value.DoubleValue
26.949

@<SCITEGIC>MOL_PROPERTY
U+W
SciTegic.value.DoubleValue
7.353

@<SCITEGIC>MOL_PROPERTY
U
SciTegic.value.DoubleValue
8.455

@<SCITEGIC>MOL_PROPERTY
W
SciTegic.value.DoubleValue
-1.102

@<SCITEGIC>MOL_PROPERTY
W(PB)
SciTegic.value.DoubleValue
-3.102

@<SCITEGIC>MOL_PROPERTY
W(SA)
SciTegic.value.DoubleValue
2.000

@<SCITEGIC>MOL_PROPERTY
Valence
SciTegic.value.DoubleValue
15.601

@<SCITEGIC>MOL_PROPERTY
Coulomb
SciTegic.value.DoubleValue
-10.573

@<SCITEGIC>MOL_PROPERTY
VdW
SciTegic.value.DoubleValue
3.427

@<SCITEGIC>MOL_PROPERTY
VdW6
SciTegic.value.DoubleValue
-11.360

@<SCITEGIC>MOL_PROPERTY
VdW12
SciTegic.value.DoubleValue
14.787

@<SCITEGIC>MOL_PROPERTY
Bond
SciTegic.value.DoubleValue
0.470

@<SCITEGIC>MOL_PROPERTY
Angle
SciTegic.value.DoubleValue
5.445

@<SCITEGIC>MOL_PROPERTY
Pdih
SciTegic.value.DoubleValue
9.685

@<SCITEGIC>MOL_PROPERTY
Idih
SciTegic.value.DoubleValue
0.000

@<SCITEGIC>MOL_PROPERTY
Tether
SciTegic.value.DoubleValue
0.000

@<TRIPOS>MOLECULE
guest-5_vm2.mol2 : vm2 ligand conformer 76
          22          22           1
SMALL
USER_CHARGES
 
@<TRIPOS>ATOM
       1    C1      20.573534   19.110474   21.241858 C.3        1 MOL1        -0.1685
       2    H1      21.614591   18.876788   21.501947 H          1 MOL1         0.0832
       3    H2      20.502747   18.923527   20.161426 H          1 MOL1         0.0832
       4    C2      20.286052   20.621163   21.484802 C.3        1 MOL1        -0.1685
       5    H3      21.187336   21.121821   21.863065 H          1 MOL1         0.0832
       6    H4      20.090920   21.088102   20.509516 H          1 MOL1         0.0832
       7    C3      19.085822   20.943530   22.411235 C.3        1 MOL1        -0.1685
       8    H5      18.179968   20.459396   22.025731 H          1 MOL1         0.0832
       9    H6      18.874333   22.019299   22.342529 H          1 MOL1         0.0832
      10    C4      19.270555   20.590502   23.913255 C.3        1 MOL1        -0.1761
      11    H7      19.732211   21.450059   24.417271 H          1 MOL1         0.0832
      12    H8      18.276068   20.488554   24.366403 H          1 MOL1         0.0832
      13    C5      20.104022   19.335937   24.273188 C.3        1 MOL1         0.1218
      14    H9      19.928941   19.131216   25.339120 H          1 MOL1         0.0789
      15    C6      19.756418   18.038268   23.502879 C.3        1 MOL1        -0.1761
      16    H10     20.523807   17.292131   23.748625 H          1 MOL1         0.0832
      17    H11     18.819422   17.634538   23.907578 H          1 MOL1         0.0832
      18    C7      19.624133   18.115120   21.956463 C.3        1 MOL1        -0.1685
      19    H12     18.584323   18.334745   21.684198 H          1 MOL1         0.0832
      20    H13     19.808623   17.110116   21.553155 H          1 MOL1         0.0832
      21    O1      21.485462   19.623006   24.123320 O.3        1 MOL1        -0.5509
      22    H14     21.588380   19.796434   23.166104 H          1 MOL1         0.3779
@<TRIPOS>BOND
    1     1     2    1
    2     1     3    1
    3     1     4    1
    4     4     5    1
    5     4     6    1
    6     4     7    1
    7     7     8    1
    8     7     9    1
    9     7    10    1
   10    10    11    1
   11    10    12    1
   12    10    13    1
   13    13    14    1
   14    13    15    1
   15    15    16    1
   16    15    17    1
   17     1    18    1
   18    15    18    1
   19    18    19    1
   20    18    20    1
   21    13    21    1
   22    21    22    1
@<TRIPOS>SUBSTRUCTURE
       1 MOL1            1 RESIDUE      1      MOL     
@<SCITEGIC>MOL_PROPERTY
VM2 Rank
SciTegic.value.IntegerValue
76

@<SCITEGIC>MOL_PROPERTY
Conf_Id
SciTegic.value.IntegerValue
2632

@<SCITEGIC>MOL_PROPERTY
Probability
SciTegic.value.DoubleValue
0.00

@<SCITEGIC>MOL_PROPERTY
Sum Probability
SciTegic.value.DoubleValue
100.00

@<SCITEGIC>MOL_PROPERTY
Delta G
SciTegic.value.DoubleValue
4.844

@<SCITEGIC>MOL_PROPERTY
G
SciTegic.value.DoubleValue
52.206

@<SCITEGIC>MOL_PROPERTY
E
SciTegic.value.DoubleValue
25.257

@<SCITEGIC>MOL_PROPERTY
-TS
SciTegic.value.DoubleValue
26.949

@<SCITEGIC>MOL_PROPERTY
U+W
SciTegic.value.DoubleValue
7.373

@<SCITEGIC>MOL_PROPERTY
U
SciTegic.value.DoubleValue
8.455

@<SCITEGIC>MOL_PROPERTY
W
SciTegic.value.DoubleValue
-1.083

@<SCITEGIC>MOL_PROPERTY
W(PB)
SciTegic.value.DoubleValue
-3.072

@<SCITEGIC>MOL_PROPERTY
W(SA)
SciTegic.value.DoubleValue
1.990

@<SCITEGIC>MOL_PROPERTY
Valence
SciTegic.value.DoubleValue
15.601

@<SCITEGIC>MOL_PROPERTY
Coulomb
SciTegic.value.DoubleValue
-10.573

@<SCITEGIC>MOL_PROPERTY
VdW
SciTegic.value.DoubleValue
3.427

@<SCITEGIC>MOL_PROPERTY
VdW6
SciTegic.value.DoubleValue
-11.360

@<SCITEGIC>MOL_PROPERTY
VdW12
SciTegic.value.DoubleValue
14.787

@<SCITEGIC>MOL_PROPERTY
Bond
SciTegic.value.DoubleValue
0.470

@<SCITEGIC>MOL_PROPERTY
Angle
SciTegic.value.DoubleValue
5.445

@<SCITEGIC>MOL_PROPERTY
Pdih
SciTegic.value.DoubleValue
9.686

@<SCITEGIC>MOL_PROPERTY
Idih
SciTegic.value.DoubleValue
0.000

@<SCITEGIC>MOL_PROPERTY
Tether
SciTegic.value.DoubleValue
0.000

@<TRIPOS>MOLECULE
guest-5_vm2.mol2 : vm2 ligand conformer 77
          22          22           1
SMALL
USER_CHARGES
 
@<TRIPOS>ATOM
       1    C1      19.324137   18.775680   21.443380 C.3        1 MOL1        -0.1685
       2    H1      19.137935   18.532583   20.388518 H          1 MOL1         0.0832
       3    H2      18.659100   18.114871   22.015322 H          1 MOL1         0.0832
       4    C2      18.910734   20.256644   21.680962 C.3        1 MOL1        -0.1685
       5    H3      18.577957   20.678548   20.722994 H          1 MOL1         0.0832
       6    H4      18.030111   20.285788   22.337174 H          1 MOL1         0.0832
       7    C3      20.005770   21.185243   22.262892 C.3        1 MOL1        -0.1685
       8    H5      19.650873   22.222678   22.198867 H          1 MOL1         0.0832
       9    H6      20.899472   21.156674   21.627817 H          1 MOL1         0.0832
      10    C4      20.395653   20.906281   23.739605 C.3        1 MOL1        -0.1761
      11    H7      21.374075   21.366213   23.928067 H          1 MOL1         0.0832
      12    H8      19.690949   21.439810   24.390967 H          1 MOL1         0.0832
      13    C5      20.446068   19.431944   24.214328 C.3        1 MOL1         0.1218
      14    H9      21.007720   19.432264   25.159595 H          1 MOL1         0.0789
      15    C6      21.173033   18.432162   23.277444 C.3        1 MOL1        -0.1761
      16    H10     22.253618   18.607613   23.357167 H          1 MOL1         0.0832
      17    H11     21.015367   17.422448   23.678090 H          1 MOL1         0.0832
      18    C7      20.796520   18.422608   21.769440 C.3        1 MOL1        -0.1685
      19    H12     21.468782   19.087029   21.212700 H          1 MOL1         0.0832
      20    H13     21.008679   17.419617   21.375135 H          1 MOL1         0.0832
      21    O1      19.134085   18.967440   24.518947 O.3        1 MOL1        -0.5509
      22    H14     19.217342   18.018381   24.739962 H          1 MOL1         0.3779
@<TRIPOS>BOND
    1     1     2    1
    2     1     3    1
    3     1     4    1
    4     4     5    1
    5     4     6    1
    6     4     7    1
    7     7     8    1
    8     7     9    1
    9     7    10    1
   10    10    11    1
   11    10    12    1
   12    10    13    1
   13    13    14    1
   14    13    15    1
   15    15    16    1
   16    15    17    1
   17     1    18    1
   18    15    18    1
   19    18    19    1
   20    18    20    1
   21    13    21    1
   22    21    22    1
@<TRIPOS>SUBSTRUCTURE
       1 MOL1            1 RESIDUE      1      MOL     
@<SCITEGIC>MOL_PROPERTY
VM2 Rank
SciTegic.value.IntegerValue
77

@<SCITEGIC>MOL_PROPERTY
Conf_Id
SciTegic.value.IntegerValue
1958

@<SCITEGIC>MOL_PROPERTY
Probability
SciTegic.value.DoubleValue
0.00

@<SCITEGIC>MOL_PROPERTY
Sum Probability
SciTegic.value.DoubleValue
100.00

@<SCITEGIC>MOL_PROPERTY
Delta G
SciTegic.value.DoubleValue
6.646

@<SCITEGIC>MOL_PROPERTY
G
SciTegic.value.DoubleValue
54.009

@<SCITEGIC>MOL_PROPERTY
E
SciTegic.value.DoubleValue
27.803

@<SCITEGIC>MOL_PROPERTY
-TS
SciTegic.value.DoubleValue
26.205

@<SCITEGIC>MOL_PROPERTY
U+W
SciTegic.value.DoubleValue
9.919

@<SCITEGIC>MOL_PROPERTY
U
SciTegic.value.DoubleValue
11.966

@<SCITEGIC>MOL_PROPERTY
W
SciTegic.value.DoubleValue
-2.047

@<SCITEGIC>MOL_PROPERTY
W(PB)
SciTegic.value.DoubleValue
-4.020

@<SCITEGIC>MOL_PROPERTY
W(SA)
SciTegic.value.DoubleValue
1.973

@<SCITEGIC>MOL_PROPERTY
Valence
SciTegic.value.DoubleValue
15.235

@<SCITEGIC>MOL_PROPERTY
Coulomb
SciTegic.value.DoubleValue
-6.623

@<SCITEGIC>MOL_PROPERTY
VdW
SciTegic.value.DoubleValue
3.353

@<SCITEGIC>MOL_PROPERTY
VdW6
SciTegic.value.DoubleValue
-10.808

@<SCITEGIC>MOL_PROPERTY
VdW12
SciTegic.value.DoubleValue
14.162

@<SCITEGIC>MOL_PROPERTY
Bond
SciTegic.value.DoubleValue
0.452

@<SCITEGIC>MOL_PROPERTY
Angle
SciTegic.value.DoubleValue
5.180

@<SCITEGIC>MOL_PROPERTY
Pdih
SciTegic.value.DoubleValue
9.603

@<SCITEGIC>MOL_PROPERTY
Idih
SciTegic.value.DoubleValue
0.000

@<SCITEGIC>MOL_PROPERTY
Tether
SciTegic.value.DoubleValue
0.000

