VeraChem MOL file


 22 22  0  0  0  0  0  0  0  0999 V2000     
   19.8825   19.0490   20.9026 C   0  0  0  0  0  0  0  0  0  0  0  0
   20.8932   19.1566   20.4858 H   0  0  0  0  0  0  0  0  0  0  0  0
   19.2824   18.5760   20.1134 H   0  0  0  0  0  0  0  0  0  0  0  0
   19.2917   20.4493   21.1836 C   0  0  0  0  0  0  0  0  0  0  0  0
   19.3610   21.0412   20.2608 H   0  0  0  0  0  0  0  0  0  0  0  0
   18.2185   20.3558   21.3990 H   0  0  0  0  0  0  0  0  0  0  0  0
   19.9806   21.2344   22.3249 C   0  0  0  0  0  0  0  0  0  0  0  0
   19.6224   22.2720   22.2799 H   0  0  0  0  0  0  0  0  0  0  0  0
   21.0670   21.2803   22.1688 H   0  0  0  0  0  0  0  0  0  0  0  0
   19.6467   20.6733   23.7283 C   0  0  0  0  0  0  0  0  0  0  0  0
   19.7185   21.4905   24.4577 H   0  0  0  0  0  0  0  0  0  0  0  0
   18.5974   20.3507   23.7487 H   0  0  0  0  0  0  0  0  0  0  0  0
   20.5644   19.5313   24.2234 C   0  0  0  0  0  0  0  0  0  0  0  0
   21.4771   19.9849   24.6359 H   0  0  0  0  0  0  0  0  0  0  0  0
   21.0068   18.5018   23.1578 C   0  0  0  0  0  0  0  0  0  0  0  0
   21.8884   18.8894   22.6312 H   0  0  0  0  0  0  0  0  0  0  0  0
   21.3564   17.5991   23.6766 H   0  0  0  0  0  0  0  0  0  0  0  0
   19.9265   18.1001   22.1235 C   0  0  0  0  0  0  0  0  0  0  0  0
   20.1660   17.0931   21.7555 H   0  0  0  0  0  0  0  0  0  0  0  0
   18.9371   18.0248   22.5940 H   0  0  0  0  0  0  0  0  0  0  0  0
   19.8869   18.8389   25.2629 O   0  0  0  0  0  0  0  0  0  0  0  0
   19.1422   18.3715   24.8327 H   0  0  0  0  0  0  0  0  0  0  0  0
  1  2  1  0  0  0  0
  1  3  1  0  0  0  0
  1  4  1  0  0  0  0
  4  5  1  0  0  0  0
  4  6  1  0  0  0  0
  4  7  1  0  0  0  0
  7  8  1  0  0  0  0
  7  9  1  0  0  0  0
  7 10  1  0  0  0  0
 10 11  1  0  0  0  0
 10 12  1  0  0  0  0
 10 13  1  0  0  0  0
 13 14  1  0  0  0  0
 13 15  1  0  0  0  0
 15 16  1  0  0  0  0
 15 17  1  0  0  0  0
  1 18  1  0  0  0  0
 15 18  1  0  0  0  0
 18 19  1  0  0  0  0
 18 20  1  0  0  0  0
 13 21  1  0  0  0  0
 21 22  1  0  0  0  0
M  END
> <VM2 Rank>
1

> <Conf_Id>
1160

> <Probability>
4.87

> <Sum Probability>
4.87

> <Delta G>
0.000

> <G>
47.363

> <E>
20.694

> <-TS>
26.668

> <U+W>
2.809

> <U>
4.530

> <W>
-1.721

> <W(PB)>
-3.723

> <W(SA)>
2.002

> <Valence>
12.224

> <Coulomb>
-9.755

> <VdW>
2.062

> <VdW6>
-9.196

> <VdW12>
11.257

> <Bond>
0.216

> <Angle>
2.754

> <Pdih>
9.253

> <Idih>
0.000

> <Tether>
0.000

$$$$
VeraChem MOL file


 22 22  0  0  0  0  0  0  0  0999 V2000     
   19.9467   19.0637   20.8954 C   0  0  0  0  0  0  0  0  0  0  0  0
   20.5100   18.8571   19.9752 H   0  0  0  0  0  0  0  0  0  0  0  0
   18.9252   18.7060   20.7073 H   0  0  0  0  0  0  0  0  0  0  0  0
   19.9226   20.5937   21.1126 C   0  0  0  0  0  0  0  0  0  0  0  0
   20.9503   20.9814   21.0916 H   0  0  0  0  0  0  0  0  0  0  0  0
   19.4123   21.0529   20.2550 H   0  0  0  0  0  0  0  0  0  0  0  0
   19.2215   21.0606   22.4104 C   0  0  0  0  0  0  0  0  0  0  0  0
   18.2152   20.6273   22.4897 H   0  0  0  0  0  0  0  0  0  0  0  0
   19.0803   22.1478   22.3409 H   0  0  0  0  0  0  0  0  0  0  0  0
   20.0524   20.7662   23.6826 C   0  0  0  0  0  0  0  0  0  0  0  0
   21.1164   20.9275   23.4652 H   0  0  0  0  0  0  0  0  0  0  0  0
   19.7920   21.5073   24.4495 H   0  0  0  0  0  0  0  0  0  0  0  0
   19.8425   19.3660   24.3047 C   0  0  0  0  0  0  0  0  0  0  0  0
   18.9334   19.4024   24.9220 H   0  0  0  0  0  0  0  0  0  0  0  0
   19.6717   18.1961   23.3080 C   0  0  0  0  0  0  0  0  0  0  0  0
   19.8627   17.2570   23.8447 H   0  0  0  0  0  0  0  0  0  0  0  0
   18.6199   18.1409   22.9990 H   0  0  0  0  0  0  0  0  0  0  0  0
   20.5742   18.2484   22.0506 C   0  0  0  0  0  0  0  0  0  0  0  0
   20.7191   17.2198   21.6932 H   0  0  0  0  0  0  0  0  0  0  0  0
   21.5743   18.6288   22.2972 H   0  0  0  0  0  0  0  0  0  0  0  0
   20.9545   19.0834   25.1428 O   0  0  0  0  0  0  0  0  0  0  0  0
   21.7183   18.9614   24.5429 H   0  0  0  0  0  0  0  0  0  0  0  0
  1  2  1  0  0  0  0
  1  3  1  0  0  0  0
  1  4  1  0  0  0  0
  4  5  1  0  0  0  0
  4  6  1  0  0  0  0
  4  7  1  0  0  0  0
  7  8  1  0  0  0  0
  7  9  1  0  0  0  0
  7 10  1  0  0  0  0
 10 11  1  0  0  0  0
 10 12  1  0  0  0  0
 10 13  1  0  0  0  0
 13 14  1  0  0  0  0
 13 15  1  0  0  0  0
 15 16  1  0  0  0  0
 15 17  1  0  0  0  0
  1 18  1  0  0  0  0
 15 18  1  0  0  0  0
 18 19  1  0  0  0  0
 18 20  1  0  0  0  0
 13 21  1  0  0  0  0
 21 22  1  0  0  0  0
M  END
> <VM2 Rank>
2

> <Conf_Id>
2585

> <Probability>
4.76

> <Sum Probability>
9.63

> <Delta G>
0.013

> <G>
47.376

> <E>
20.708

> <-TS>
26.668

> <U+W>
2.823

> <U>
4.530

> <W>
-1.708

> <W(PB)>
-3.712

> <W(SA)>
2.004

> <Valence>
12.224

> <Coulomb>
-9.755

> <VdW>
2.061

> <VdW6>
-9.195

> <VdW12>
11.257

> <Bond>
0.216

> <Angle>
2.754

> <Pdih>
9.253

> <Idih>
0.000

> <Tether>
0.000

$$$$
VeraChem MOL file


 22 22  0  0  0  0  0  0  0  0999 V2000     
   19.6681   19.0240   20.9215 C   0  0  0  0  0  0  0  0  0  0  0  0
   19.9308   18.8838   19.8641 H   0  0  0  0  0  0  0  0  0  0  0  0
   18.7048   18.5146   21.0604 H   0  0  0  0  0  0  0  0  0  0  0  0
   19.4895   20.5380   21.1763 C   0  0  0  0  0  0  0  0  0  0  0  0
   20.3873   21.0730   20.8382 H   0  0  0  0  0  0  0  0  0  0  0  0
   18.6694   20.8980   20.5401 H   0  0  0  0  0  0  0  0  0  0  0  0
   19.1810   20.9231   22.6424 C   0  0  0  0  0  0  0  0  0  0  0  0
   18.3220   20.3539   23.0220 H   0  0  0  0  0  0  0  0  0  0  0  0
   18.8759   21.9784   22.6535 H   0  0  0  0  0  0  0  0  0  0  0  0
   20.4080   20.7692   23.5746 C   0  0  0  0  0  0  0  0  0  0  0  0
   21.3173   21.0517   23.0288 H   0  0  0  0  0  0  0  0  0  0  0  0
   20.3269   21.4969   24.3933 H   0  0  0  0  0  0  0  0  0  0  0  0
   20.6080   19.3661   24.1931 C   0  0  0  0  0  0  0  0  0  0  0  0
   21.6588   19.2970   24.5092 H   0  0  0  0  0  0  0  0  0  0  0  0
   20.3091   18.1642   23.2670 C   0  0  0  0  0  0  0  0  0  0  0  0
   20.8271   17.2916   23.6859 H   0  0  0  0  0  0  0  0  0  0  0  0
   19.2398   17.9174   23.3013 H   0  0  0  0  0  0  0  0  0  0  0  0
   20.7460   18.3355   21.7921 C   0  0  0  0  0  0  0  0  0  0  0  0
   20.9256   17.3362   21.3727 H   0  0  0  0  0  0  0  0  0  0  0  0
   21.7034   18.8701   21.7258 H   0  0  0  0  0  0  0  0  0  0  0  0
   19.7763   19.2580   25.3400 O   0  0  0  0  0  0  0  0  0  0  0  0
   18.8642   19.4246   25.0265 H   0  0  0  0  0  0  0  0  0  0  0  0
  1  2  1  0  0  0  0
  1  3  1  0  0  0  0
  1  4  1  0  0  0  0
  4  5  1  0  0  0  0
  4  6  1  0  0  0  0
  4  7  1  0  0  0  0
  7  8  1  0  0  0  0
  7  9  1  0  0  0  0
  7 10  1  0  0  0  0
 10 11  1  0  0  0  0
 10 12  1  0  0  0  0
 10 13  1  0  0  0  0
 13 14  1  0  0  0  0
 13 15  1  0  0  0  0
 15 16  1  0  0  0  0
 15 17  1  0  0  0  0
  1 18  1  0  0  0  0
 15 18  1  0  0  0  0
 18 19  1  0  0  0  0
 18 20  1  0  0  0  0
 13 21  1  0  0  0  0
 21 22  1  0  0  0  0
M  END
> <VM2 Rank>
3

> <Conf_Id>
571

> <Probability>
4.68

> <Sum Probability>
14.31

> <Delta G>
0.024

> <G>
47.387

> <E>
20.718

> <-TS>
26.668

> <U+W>
2.833

> <U>
4.530

> <W>
-1.697

> <W(PB)>
-3.699

> <W(SA)>
2.002

> <Valence>
12.224

> <Coulomb>
-9.755

> <VdW>
2.061

> <VdW6>
-9.195

> <VdW12>
11.257

> <Bond>
0.216

> <Angle>
2.754

> <Pdih>
9.253

> <Idih>
0.000

> <Tether>
0.000

$$$$
VeraChem MOL file


 22 22  0  0  0  0  0  0  0  0999 V2000     
   19.7402   19.1255   21.1084 C   0  0  0  0  0  0  0  0  0  0  0  0
   18.6440   19.1065   21.1740 H   0  0  0  0  0  0  0  0  0  0  0  0
   19.9847   18.8847   20.0648 H   0  0  0  0  0  0  0  0  0  0  0  0
   20.2869   20.5401   21.4077 C   0  0  0  0  0  0  0  0  0  0  0  0
   21.3709   20.4838   21.5722 H   0  0  0  0  0  0  0  0  0  0  0  0
   20.1679   21.1593   20.5079 H   0  0  0  0  0  0  0  0  0  0  0  0
   19.6110   21.2857   22.5863 C   0  0  0  0  0  0  0  0  0  0  0  0
   18.7757   21.8785   22.1890 H   0  0  0  0  0  0  0  0  0  0  0  0
   20.3234   22.0194   22.9880 H   0  0  0  0  0  0  0  0  0  0  0  0
   19.0582   20.4213   23.7518 C   0  0  0  0  0  0  0  0  0  0  0  0
   18.8283   21.0909   24.5907 H   0  0  0  0  0  0  0  0  0  0  0  0
   18.0930   19.9918   23.4536 H   0  0  0  0  0  0  0  0  0  0  0  0
   19.9654   19.2856   24.2783 C   0  0  0  0  0  0  0  0  0  0  0  0
   19.6347   19.0499   25.3000 H   0  0  0  0  0  0  0  0  0  0  0  0
   19.8361   17.9838   23.4555 C   0  0  0  0  0  0  0  0  0  0  0  0
   20.3636   17.1853   23.9934 H   0  0  0  0  0  0  0  0  0  0  0  0
   18.7809   17.6818   23.4389 H   0  0  0  0  0  0  0  0  0  0  0  0
   20.3680   18.0290   22.0016 C   0  0  0  0  0  0  0  0  0  0  0  0
   21.4613   18.1345   22.0081 H   0  0  0  0  0  0  0  0  0  0  0  0
   20.1687   17.0523   21.5401 H   0  0  0  0  0  0  0  0  0  0  0  0
   21.3201   19.7071   24.3175 O   0  0  0  0  0  0  0  0  0  0  0  0
   21.5129   19.9760   23.3973 H   0  0  0  0  0  0  0  0  0  0  0  0
  1  2  1  0  0  0  0
  1  3  1  0  0  0  0
  1  4  1  0  0  0  0
  4  5  1  0  0  0  0
  4  6  1  0  0  0  0
  4  7  1  0  0  0  0
  7  8  1  0  0  0  0
  7  9  1  0  0  0  0
  7 10  1  0  0  0  0
 10 11  1  0  0  0  0
 10 12  1  0  0  0  0
 10 13  1  0  0  0  0
 13 14  1  0  0  0  0
 13 15  1  0  0  0  0
 15 16  1  0  0  0  0
 15 17  1  0  0  0  0
  1 18  1  0  0  0  0
 15 18  1  0  0  0  0
 18 19  1  0  0  0  0
 18 20  1  0  0  0  0
 13 21  1  0  0  0  0
 21 22  1  0  0  0  0
M  END
> <VM2 Rank>
4

> <Conf_Id>
2388

> <Probability>
4.08

> <Sum Probability>
18.39

> <Delta G>
0.105

> <G>
47.468

> <E>
20.454

> <-TS>
27.013

> <U+W>
2.569

> <U>
3.922

> <W>
-1.352

> <W(PB)>
-3.332

> <W(SA)>
1.980

> <Valence>
12.571

> <Coulomb>
-10.581

> <VdW>
1.932

> <VdW6>
-10.483

> <VdW12>
12.414

> <Bond>
0.268

> <Angle>
3.728

> <Pdih>
8.575

> <Idih>
0.000

> <Tether>
0.000

$$$$
VeraChem MOL file


 22 22  0  0  0  0  0  0  0  0999 V2000     
   20.5280   19.1753   21.1957 C   0  0  0  0  0  0  0  0  0  0  0  0
   21.5420   19.5246   21.4305 H   0  0  0  0  0  0  0  0  0  0  0  0
   20.5752   18.8500   20.1473 H   0  0  0  0  0  0  0  0  0  0  0  0
   19.5412   20.3606   21.3000 C   0  0  0  0  0  0  0  0  0  0  0  0
   19.6480   20.9677   20.3907 H   0  0  0  0  0  0  0  0  0  0  0  0
   18.5016   20.0062   21.3063 H   0  0  0  0  0  0  0  0  0  0  0  0
   19.8206   21.2800   22.5127 C   0  0  0  0  0  0  0  0  0  0  0  0
   19.2963   22.2318   22.3519 H   0  0  0  0  0  0  0  0  0  0  0  0
   20.8886   21.5342   22.5494 H   0  0  0  0  0  0  0  0  0  0  0  0
   19.3680   20.7149   23.8819 C   0  0  0  0  0  0  0  0  0  0  0  0
   19.6329   21.4408   24.6617 H   0  0  0  0  0  0  0  0  0  0  0  0
   18.2722   20.6525   23.8962 H   0  0  0  0  0  0  0  0  0  0  0  0
   19.9473   19.3404   24.2865 C   0  0  0  0  0  0  0  0  0  0  0  0
   19.6041   19.1403   25.3117 H   0  0  0  0  0  0  0  0  0  0  0  0
   19.4328   18.1863   23.3959 C   0  0  0  0  0  0  0  0  0  0  0  0
   19.4690   17.2598   23.9834 H   0  0  0  0  0  0  0  0  0  0  0  0
   18.3683   18.3516   23.1848 H   0  0  0  0  0  0  0  0  0  0  0  0
   20.1823   17.9358   22.0592 C   0  0  0  0  0  0  0  0  0  0  0  0
   21.1107   17.3849   22.2643 H   0  0  0  0  0  0  0  0  0  0  0  0
   19.5663   17.2539   21.4572 H   0  0  0  0  0  0  0  0  0  0  0  0
   21.3658   19.3847   24.2751 O   0  0  0  0  0  0  0  0  0  0  0  0
   21.5939   19.4802   23.3290 H   0  0  0  0  0  0  0  0  0  0  0  0
  1  2  1  0  0  0  0
  1  3  1  0  0  0  0
  1  4  1  0  0  0  0
  4  5  1  0  0  0  0
  4  6  1  0  0  0  0
  4  7  1  0  0  0  0
  7  8  1  0  0  0  0
  7  9  1  0  0  0  0
  7 10  1  0  0  0  0
 10 11  1  0  0  0  0
 10 12  1  0  0  0  0
 10 13  1  0  0  0  0
 13 14  1  0  0  0  0
 13 15  1  0  0  0  0
 15 16  1  0  0  0  0
 15 17  1  0  0  0  0
  1 18  1  0  0  0  0
 15 18  1  0  0  0  0
 18 19  1  0  0  0  0
 18 20  1  0  0  0  0
 13 21  1  0  0  0  0
 21 22  1  0  0  0  0
M  END
> <VM2 Rank>
5

> <Conf_Id>
2139

> <Probability>
4.08

> <Sum Probability>
22.47

> <Delta G>
0.106

> <G>
47.469

> <E>
20.455

> <-TS>
27.013

> <U+W>
2.571

> <U>
3.922

> <W>
-1.351

> <W(PB)>
-3.348

> <W(SA)>
1.997

> <Valence>
12.571

> <Coulomb>
-10.581

> <VdW>
1.931

> <VdW6>
-10.483

> <VdW12>
12.414

> <Bond>
0.268

> <Angle>
3.728

> <Pdih>
8.575

> <Idih>
0.000

> <Tether>
0.000

$$$$
VeraChem MOL file


 22 22  0  0  0  0  0  0  0  0999 V2000     
   19.9766   19.1866   21.0729 C   0  0  0  0  0  0  0  0  0  0  0  0
   20.9200   19.6951   20.8325 H   0  0  0  0  0  0  0  0  0  0  0  0
   19.5990   18.7850   20.1226 H   0  0  0  0  0  0  0  0  0  0  0  0
   18.9304   20.1892   21.6113 C   0  0  0  0  0  0  0  0  0  0  0  0
   18.4880   20.7248   20.7600 H   0  0  0  0  0  0  0  0  0  0  0  0
   18.0964   19.6368   22.0636 H   0  0  0  0  0  0  0  0  0  0  0  0
   19.4660   21.2482   22.6080 C   0  0  0  0  0  0  0  0  0  0  0  0
   18.6328   21.5821   23.2417 H   0  0  0  0  0  0  0  0  0  0  0  0
   19.7733   22.1365   22.0393 H   0  0  0  0  0  0  0  0  0  0  0  0
   20.6596   20.8354   23.5115 C   0  0  0  0  0  0  0  0  0  0  0  0
   21.5881   20.8958   22.9291 H   0  0  0  0  0  0  0  0  0  0  0  0
   20.7650   21.5918   24.3001 H   0  0  0  0  0  0  0  0  0  0  0  0
   20.5856   19.4460   24.1852 C   0  0  0  0  0  0  0  0  0  0  0  0
   21.2555   19.4691   25.0568 H   0  0  0  0  0  0  0  0  0  0  0  0
   21.0851   18.3069   23.2680 C   0  0  0  0  0  0  0  0  0  0  0  0
   22.1060   18.5418   22.9399 H   0  0  0  0  0  0  0  0  0  0  0  0
   21.1716   17.3943   23.8721 H   0  0  0  0  0  0  0  0  0  0  0  0
   20.2185   17.9904   22.0240 C   0  0  0  0  0  0  0  0  0  0  0  0
   20.7218   17.1954   21.4570 H   0  0  0  0  0  0  0  0  0  0  0  0
   19.2564   17.5642   22.3390 H   0  0  0  0  0  0  0  0  0  0  0  0
   19.2641   19.1753   24.6261 O   0  0  0  0  0  0  0  0  0  0  0  0
   18.7216   19.2541   23.8163 H   0  0  0  0  0  0  0  0  0  0  0  0
  1  2  1  0  0  0  0
  1  3  1  0  0  0  0
  1  4  1  0  0  0  0
  4  5  1  0  0  0  0
  4  6  1  0  0  0  0
  4  7  1  0  0  0  0
  7  8  1  0  0  0  0
  7  9  1  0  0  0  0
  7 10  1  0  0  0  0
 10 11  1  0  0  0  0
 10 12  1  0  0  0  0
 10 13  1  0  0  0  0
 13 14  1  0  0  0  0
 13 15  1  0  0  0  0
 15 16  1  0  0  0  0
 15 17  1  0  0  0  0
  1 18  1  0  0  0  0
 15 18  1  0  0  0  0
 18 19  1  0  0  0  0
 18 20  1  0  0  0  0
 13 21  1  0  0  0  0
 21 22  1  0  0  0  0
M  END
> <VM2 Rank>
6

> <Conf_Id>
1995

> <Probability>
4.07

> <Sum Probability>
26.54

> <Delta G>
0.107

> <G>
47.470

> <E>
20.456

> <-TS>
27.013

> <U+W>
2.572

> <U>
3.922

> <W>
-1.350

> <W(PB)>
-3.345

> <W(SA)>
1.995

> <Valence>
12.571

> <Coulomb>
-10.581

> <VdW>
1.932

> <VdW6>
-10.483

> <VdW12>
12.414

> <Bond>
0.268

> <Angle>
3.728

> <Pdih>
8.575

> <Idih>
0.000

> <Tether>
0.000

$$$$
VeraChem MOL file


 22 22  0  0  0  0  0  0  0  0999 V2000     
   19.2811   18.8974   21.3797 C   0  0  0  0  0  0  0  0  0  0  0  0
   19.0867   18.5182   20.3670 H   0  0  0  0  0  0  0  0  0  0  0  0
   18.3217   18.8069   21.9057 H   0  0  0  0  0  0  0  0  0  0  0  0
   19.6719   20.3897   21.2807 C   0  0  0  0  0  0  0  0  0  0  0  0
   20.7220   20.5011   20.9786 H   0  0  0  0  0  0  0  0  0  0  0  0
   19.0763   20.8403   20.4751 H   0  0  0  0  0  0  0  0  0  0  0  0
   19.3813   21.1821   22.5776 C   0  0  0  0  0  0  0  0  0  0  0  0
   18.3601   20.9706   22.9226 H   0  0  0  0  0  0  0  0  0  0  0  0
   19.3954   22.2539   22.3372 H   0  0  0  0  0  0  0  0  0  0  0  0
   20.3859   20.9417   23.7316 C   0  0  0  0  0  0  0  0  0  0  0  0
   21.3654   21.3420   23.4397 H   0  0  0  0  0  0  0  0  0  0  0  0
   20.0692   21.5380   24.5973 H   0  0  0  0  0  0  0  0  0  0  0  0
   20.5672   19.4786   24.1950 C   0  0  0  0  0  0  0  0  0  0  0  0
   21.2304   19.5028   25.0716 H   0  0  0  0  0  0  0  0  0  0  0  0
   21.2479   18.5909   23.1279 C   0  0  0  0  0  0  0  0  0  0  0  0
   22.0434   19.1708   22.6423 H   0  0  0  0  0  0  0  0  0  0  0  0
   21.7639   17.7713   23.6447 H   0  0  0  0  0  0  0  0  0  0  0  0
   20.3343   17.9696   22.0368 C   0  0  0  0  0  0  0  0  0  0  0  0
   19.8154   17.0963   22.4556 H   0  0  0  0  0  0  0  0  0  0  0  0
   20.9860   17.5702   21.2477 H   0  0  0  0  0  0  0  0  0  0  0  0
   19.3164   18.9279   24.5776 O   0  0  0  0  0  0  0  0  0  0  0  0
   18.8183   18.8617   23.7387 H   0  0  0  0  0  0  0  0  0  0  0  0
  1  2  1  0  0  0  0
  1  3  1  0  0  0  0
  1  4  1  0  0  0  0
  4  5  1  0  0  0  0
  4  6  1  0  0  0  0
  4  7  1  0  0  0  0
  7  8  1  0  0  0  0
  7  9  1  0  0  0  0
  7 10  1  0  0  0  0
 10 11  1  0  0  0  0
 10 12  1  0  0  0  0
 10 13  1  0  0  0  0
 13 14  1  0  0  0  0
 13 15  1  0  0  0  0
 15 16  1  0  0  0  0
 15 17  1  0  0  0  0
  1 18  1  0  0  0  0
 15 18  1  0  0  0  0
 18 19  1  0  0  0  0
 18 20  1  0  0  0  0
 13 21  1  0  0  0  0
 21 22  1  0  0  0  0
M  END
> <VM2 Rank>
7

> <Conf_Id>
124

> <Probability>
3.88

> <Sum Probability>
30.42

> <Delta G>
0.135

> <G>
47.498

> <E>
20.485

> <-TS>
27.013

> <U+W>
2.600

> <U>
3.922

> <W>
-1.322

> <W(PB)>
-3.302

> <W(SA)>
1.980

> <Valence>
12.571

> <Coulomb>
-10.581

> <VdW>
1.932

> <VdW6>
-10.483

> <VdW12>
12.414

> <Bond>
0.268

> <Angle>
3.728

> <Pdih>
8.575

> <Idih>
0.000

> <Tether>
0.000

$$$$
VeraChem MOL file


 22 22  0  0  0  0  0  0  0  0999 V2000     
   19.8710   19.1041   20.8415 C   0  0  0  0  0  0  0  0  0  0  0  0
   18.8001   18.9296   20.6692 H   0  0  0  0  0  0  0  0  0  0  0  0
   20.3617   18.9262   19.8748 H   0  0  0  0  0  0  0  0  0  0  0  0
   20.0922   20.5825   21.2421 C   0  0  0  0  0  0  0  0  0  0  0  0
   21.1480   20.7715   21.4792 H   0  0  0  0  0  0  0  0  0  0  0  0
   19.8618   21.2035   20.3656 H   0  0  0  0  0  0  0  0  0  0  0  0
   19.1751   21.0347   22.4025 C   0  0  0  0  0  0  0  0  0  0  0  0
   18.1926   20.5540   22.3002 H   0  0  0  0  0  0  0  0  0  0  0  0
   18.9860   22.1127   22.3081 H   0  0  0  0  0  0  0  0  0  0  0  0
   19.7368   20.7696   23.8215 C   0  0  0  0  0  0  0  0  0  0  0  0
   20.4182   21.5886   24.0859 H   0  0  0  0  0  0  0  0  0  0  0  0
   18.9027   20.8273   24.5338 H   0  0  0  0  0  0  0  0  0  0  0  0
   20.4966   19.4387   24.0271 C   0  0  0  0  0  0  0  0  0  0  0  0
   21.5263   19.5657   23.6631 H   0  0  0  0  0  0  0  0  0  0  0  0
   19.8777   18.2250   23.2989 C   0  0  0  0  0  0  0  0  0  0  0  0
   20.1403   17.3144   23.8539 H   0  0  0  0  0  0  0  0  0  0  0  0
   18.7819   18.2858   23.3109 H   0  0  0  0  0  0  0  0  0  0  0  0
   20.4028   18.0614   21.8515 C   0  0  0  0  0  0  0  0  0  0  0  0
   21.5012   18.0856   21.8568 H   0  0  0  0  0  0  0  0  0  0  0  0
   20.1270   17.0616   21.4895 H   0  0  0  0  0  0  0  0  0  0  0  0
   20.5337   19.1621   25.4219 O   0  0  0  0  0  0  0  0  0  0  0  0
   20.9743   19.9261   25.8496 H   0  0  0  0  0  0  0  0  0  0  0  0
  1  2  1  0  0  0  0
  1  3  1  0  0  0  0
  1  4  1  0  0  0  0
  4  5  1  0  0  0  0
  4  6  1  0  0  0  0
  4  7  1  0  0  0  0
  7  8  1  0  0  0  0
  7  9  1  0  0  0  0
  7 10  1  0  0  0  0
 10 11  1  0  0  0  0
 10 12  1  0  0  0  0
 10 13  1  0  0  0  0
 13 14  1  0  0  0  0
 13 15  1  0  0  0  0
 15 16  1  0  0  0  0
 15 17  1  0  0  0  0
  1 18  1  0  0  0  0
 15 18  1  0  0  0  0
 18 19  1  0  0  0  0
 18 20  1  0  0  0  0
 13 21  1  0  0  0  0
 21 22  1  0  0  0  0
M  END
> <VM2 Rank>
8

> <Conf_Id>
1799

> <Probability>
3.12

> <Sum Probability>
33.55

> <Delta G>
0.265

> <G>
47.628

> <E>
20.970

> <-TS>
26.658

> <U+W>
3.085

> <U>
5.433

> <W>
-2.348

> <W(PB)>
-4.358

> <W(SA)>
2.010

> <Valence>
11.903

> <Coulomb>
-8.719

> <VdW>
2.250

> <VdW6>
-8.926

> <VdW12>
11.176

> <Bond>
0.223

> <Angle>
2.471

> <Pdih>
9.209

> <Idih>
0.000

> <Tether>
0.000

$$$$
VeraChem MOL file


 22 22  0  0  0  0  0  0  0  0999 V2000     
   20.3567   19.2286   20.9946 C   0  0  0  0  0  0  0  0  0  0  0  0
   21.4143   19.4317   21.2107 H   0  0  0  0  0  0  0  0  0  0  0  0
   20.3193   18.8927   19.9493 H   0  0  0  0  0  0  0  0  0  0  0  0
   19.5116   20.5207   21.1032 C   0  0  0  0  0  0  0  0  0  0  0  0
   19.7921   21.1926   20.2805 H   0  0  0  0  0  0  0  0  0  0  0  0
   18.4524   20.2778   20.9423 H   0  0  0  0  0  0  0  0  0  0  0  0
   19.6622   21.2963   22.4320 C   0  0  0  0  0  0  0  0  0  0  0  0
   18.9675   22.1471   22.4130 H   0  0  0  0  0  0  0  0  0  0  0  0
   20.6688   21.7327   22.4879 H   0  0  0  0  0  0  0  0  0  0  0  0
   19.3901   20.4650   23.7097 C   0  0  0  0  0  0  0  0  0  0  0  0
   19.3074   21.1651   24.5518 H   0  0  0  0  0  0  0  0  0  0  0  0
   18.4223   19.9519   23.6416 H   0  0  0  0  0  0  0  0  0  0  0  0
   20.5185   19.4563   24.0195 C   0  0  0  0  0  0  0  0  0  0  0  0
   21.4700   19.8976   23.6899 H   0  0  0  0  0  0  0  0  0  0  0  0
   20.3557   18.0781   23.3378 C   0  0  0  0  0  0  0  0  0  0  0  0
   21.3348   17.5818   23.3476 H   0  0  0  0  0  0  0  0  0  0  0  0
   19.6903   17.4478   23.9432 H   0  0  0  0  0  0  0  0  0  0  0  0
   19.8204   18.0829   21.8843 C   0  0  0  0  0  0  0  0  0  0  0  0
   18.7223   18.1136   21.8969 H   0  0  0  0  0  0  0  0  0  0  0  0
   20.0821   17.1209   21.4228 H   0  0  0  0  0  0  0  0  0  0  0  0
   20.5709   19.2501   25.4260 O   0  0  0  0  0  0  0  0  0  0  0  0
   21.3245   18.6465   25.5949 H   0  0  0  0  0  0  0  0  0  0  0  0
  1  2  1  0  0  0  0
  1  3  1  0  0  0  0
  1  4  1  0  0  0  0
  4  5  1  0  0  0  0
  4  6  1  0  0  0  0
  4  7  1  0  0  0  0
  7  8  1  0  0  0  0
  7  9  1  0  0  0  0
  7 10  1  0  0  0  0
 10 11  1  0  0  0  0
 10 12  1  0  0  0  0
 10 13  1  0  0  0  0
 13 14  1  0  0  0  0
 13 15  1  0  0  0  0
 15 16  1  0  0  0  0
 15 17  1  0  0  0  0
  1 18  1  0  0  0  0
 15 18  1  0  0  0  0
 18 19  1  0  0  0  0
 18 20  1  0  0  0  0
 13 21  1  0  0  0  0
 21 22  1  0  0  0  0
M  END
> <VM2 Rank>
9

> <Conf_Id>
1339

> <Probability>
2.99

> <Sum Probability>
36.54

> <Delta G>
0.291

> <G>
47.653

> <E>
20.996

> <-TS>
26.657

> <U+W>
3.111

> <U>
5.433

> <W>
-2.322

> <W(PB)>
-4.348

> <W(SA)>
2.026

> <Valence>
11.903

> <Coulomb>
-8.719

> <VdW>
2.250

> <VdW6>
-8.926

> <VdW12>
11.175

> <Bond>
0.223

> <Angle>
2.471

> <Pdih>
9.209

> <Idih>
0.000

> <Tether>
0.000

$$$$
VeraChem MOL file


 22 22  0  0  0  0  0  0  0  0999 V2000     
   19.8722   19.1045   20.8422 C   0  0  0  0  0  0  0  0  0  0  0  0
   20.3635   18.9263   19.8759 H   0  0  0  0  0  0  0  0  0  0  0  0
   18.8013   18.9312   20.6688 H   0  0  0  0  0  0  0  0  0  0  0  0
   20.0945   20.5828   21.2431 C   0  0  0  0  0  0  0  0  0  0  0  0
   21.1501   20.7706   21.4819 H   0  0  0  0  0  0  0  0  0  0  0  0
   19.8664   21.2039   20.3660 H   0  0  0  0  0  0  0  0  0  0  0  0
   19.1761   21.0368   22.4017 C   0  0  0  0  0  0  0  0  0  0  0  0
   18.1921   20.5600   22.2960 H   0  0  0  0  0  0  0  0  0  0  0  0
   18.9914   22.1157   22.3088 H   0  0  0  0  0  0  0  0  0  0  0  0
   19.7327   20.7671   23.8221 C   0  0  0  0  0  0  0  0  0  0  0  0
   20.4125   21.5844   24.0953 H   0  0  0  0  0  0  0  0  0  0  0  0
   18.8978   20.8197   24.5337 H   0  0  0  0  0  0  0  0  0  0  0  0
   20.4954   19.4381   24.0260 C   0  0  0  0  0  0  0  0  0  0  0  0
   21.5234   19.5706   23.6592 H   0  0  0  0  0  0  0  0  0  0  0  0
   19.8751   18.2241   23.2988 C   0  0  0  0  0  0  0  0  0  0  0  0
   20.1302   17.3096   23.8503 H   0  0  0  0  0  0  0  0  0  0  0  0
   18.7793   18.2898   23.3066 H   0  0  0  0  0  0  0  0  0  0  0  0
   20.4020   18.0606   21.8521 C   0  0  0  0  0  0  0  0  0  0  0  0
   20.1252   17.0615   21.4889 H   0  0  0  0  0  0  0  0  0  0  0  0
   21.5004   18.0835   21.8581 H   0  0  0  0  0  0  0  0  0  0  0  0
   20.5381   19.1640   25.4211 O   0  0  0  0  0  0  0  0  0  0  0  0
   21.0889   18.3613   25.5343 H   0  0  0  0  0  0  0  0  0  0  0  0
  1  2  1  0  0  0  0
  1  3  1  0  0  0  0
  1  4  1  0  0  0  0
  4  5  1  0  0  0  0
  4  6  1  0  0  0  0
  4  7  1  0  0  0  0
  7  8  1  0  0  0  0
  7  9  1  0  0  0  0
  7 10  1  0  0  0  0
 10 11  1  0  0  0  0
 10 12  1  0  0  0  0
 10 13  1  0  0  0  0
 13 14  1  0  0  0  0
 13 15  1  0  0  0  0
 15 16  1  0  0  0  0
 15 17  1  0  0  0  0
  1 18  1  0  0  0  0
 15 18  1  0  0  0  0
 18 19  1  0  0  0  0
 18 20  1  0  0  0  0
 13 21  1  0  0  0  0
 21 22  1  0  0  0  0
M  END
> <VM2 Rank>
10

> <Conf_Id>
2314

> <Probability>
2.95

> <Sum Probability>
39.48

> <Delta G>
0.300

> <G>
47.662

> <E>
20.999

> <-TS>
26.663

> <U+W>
3.114

> <U>
5.411

> <W>
-2.297

> <W(PB)>
-4.300

> <W(SA)>
2.003

> <Valence>
11.909

> <Coulomb>
-8.733

> <VdW>
2.236

> <VdW6>
-8.936

> <VdW12>
11.172

> <Bond>
0.223

> <Angle>
2.458

> <Pdih>
9.228

> <Idih>
0.000

> <Tether>
0.000

$$$$
VeraChem MOL file


 22 22  0  0  0  0  0  0  0  0999 V2000     
   19.5138   19.0081   21.0878 C   0  0  0  0  0  0  0  0  0  0  0  0
   19.4944   18.6774   20.0404 H   0  0  0  0  0  0  0  0  0  0  0  0
   18.5593   18.6858   21.5257 H   0  0  0  0  0  0  0  0  0  0  0  0
   19.6311   20.5515   21.0908 C   0  0  0  0  0  0  0  0  0  0  0  0
   20.6177   20.8424   20.7052 H   0  0  0  0  0  0  0  0  0  0  0  0
   18.9004   20.9593   20.3790 H   0  0  0  0  0  0  0  0  0  0  0  0
   19.3981   21.2277   22.4615 C   0  0  0  0  0  0  0  0  0  0  0  0
   18.3413   21.1259   22.7437 H   0  0  0  0  0  0  0  0  0  0  0  0
   19.5747   22.3058   22.3458 H   0  0  0  0  0  0  0  0  0  0  0  0
   20.2918   20.7011   23.6109 C   0  0  0  0  0  0  0  0  0  0  0  0
   21.3492   20.7141   23.3164 H   0  0  0  0  0  0  0  0  0  0  0  0
   20.1999   21.4023   24.4508 H   0  0  0  0  0  0  0  0  0  0  0  0
   19.8802   19.2902   24.0881 C   0  0  0  0  0  0  0  0  0  0  0  0
   18.7907   19.1935   23.9768 H   0  0  0  0  0  0  0  0  0  0  0  0
   20.5512   18.1306   23.3172 C   0  0  0  0  0  0  0  0  0  0  0  0
   21.5457   17.9392   23.7421 H   0  0  0  0  0  0  0  0  0  0  0  0
   19.9636   17.2231   23.5067 H   0  0  0  0  0  0  0  0  0  0  0  0
   20.7055   18.3126   21.7864 C   0  0  0  0  0  0  0  0  0  0  0  0
   21.6287   18.8688   21.5738 H   0  0  0  0  0  0  0  0  0  0  0  0
   20.8511   17.3197   21.3395 H   0  0  0  0  0  0  0  0  0  0  0  0
   20.2142   19.1561   25.4642 O   0  0  0  0  0  0  0  0  0  0  0  0
   19.7193   19.8529   25.9440 H   0  0  0  0  0  0  0  0  0  0  0  0
  1  2  1  0  0  0  0
  1  3  1  0  0  0  0
  1  4  1  0  0  0  0
  4  5  1  0  0  0  0
  4  6  1  0  0  0  0
  4  7  1  0  0  0  0
  7  8  1  0  0  0  0
  7  9  1  0  0  0  0
  7 10  1  0  0  0  0
 10 11  1  0  0  0  0
 10 12  1  0  0  0  0
 10 13  1  0  0  0  0
 13 14  1  0  0  0  0
 13 15  1  0  0  0  0
 15 16  1  0  0  0  0
 15 17  1  0  0  0  0
  1 18  1  0  0  0  0
 15 18  1  0  0  0  0
 18 19  1  0  0  0  0
 18 20  1  0  0  0  0
 13 21  1  0  0  0  0
 21 22  1  0  0  0  0
M  END
> <VM2 Rank>
11

> <Conf_Id>
2288

> <Probability>
2.93

> <Sum Probability>
42.41

> <Delta G>
0.303

> <G>
47.665

> <E>
21.002

> <-TS>
26.663

> <U+W>
3.118

> <U>
5.411

> <W>
-2.294

> <W(PB)>
-4.303

> <W(SA)>
2.009

> <Valence>
11.909

> <Coulomb>
-8.733

> <VdW>
2.236

> <VdW6>
-8.936

> <VdW12>
11.172

> <Bond>
0.223

> <Angle>
2.457

> <Pdih>
9.228

> <Idih>
0.000

> <Tether>
0.000

$$$$
VeraChem MOL file


 22 22  0  0  0  0  0  0  0  0999 V2000     
   20.3584   19.2285   20.9955 C   0  0  0  0  0  0  0  0  0  0  0  0
   21.4157   19.4313   21.2134 H   0  0  0  0  0  0  0  0  0  0  0  0
   20.3226   18.8935   19.9498 H   0  0  0  0  0  0  0  0  0  0  0  0
   19.5132   20.5207   21.1037 C   0  0  0  0  0  0  0  0  0  0  0  0
   19.7945   21.1926   20.2813 H   0  0  0  0  0  0  0  0  0  0  0  0
   18.4542   20.2778   20.9416 H   0  0  0  0  0  0  0  0  0  0  0  0
   19.6622   21.2966   22.4326 C   0  0  0  0  0  0  0  0  0  0  0  0
   18.9674   22.1473   22.4122 H   0  0  0  0  0  0  0  0  0  0  0  0
   20.6688   21.7333   22.4893 H   0  0  0  0  0  0  0  0  0  0  0  0
   19.3882   20.4652   23.7097 C   0  0  0  0  0  0  0  0  0  0  0  0
   19.2974   21.1668   24.5494 H   0  0  0  0  0  0  0  0  0  0  0  0
   18.4216   19.9500   23.6364 H   0  0  0  0  0  0  0  0  0  0  0  0
   20.5172   19.4565   24.0185 C   0  0  0  0  0  0  0  0  0  0  0  0
   21.4694   19.8927   23.6842 H   0  0  0  0  0  0  0  0  0  0  0  0
   20.3502   18.0781   23.3391 C   0  0  0  0  0  0  0  0  0  0  0  0
   21.3277   17.5792   23.3574 H   0  0  0  0  0  0  0  0  0  0  0  0
   19.6819   17.4525   23.9458 H   0  0  0  0  0  0  0  0  0  0  0  0
   19.8208   18.0818   21.8832 C   0  0  0  0  0  0  0  0  0  0  0  0
   20.0862   17.1201   21.4231 H   0  0  0  0  0  0  0  0  0  0  0  0
   18.7227   18.1105   21.8915 H   0  0  0  0  0  0  0  0  0  0  0  0
   20.5758   19.2505   25.4247 O   0  0  0  0  0  0  0  0  0  0  0  0
   20.7575   20.1239   25.8306 H   0  0  0  0  0  0  0  0  0  0  0  0
  1  2  1  0  0  0  0
  1  3  1  0  0  0  0
  1  4  1  0  0  0  0
  4  5  1  0  0  0  0
  4  6  1  0  0  0  0
  4  7  1  0  0  0  0
  7  8  1  0  0  0  0
  7  9  1  0  0  0  0
  7 10  1  0  0  0  0
 10 11  1  0  0  0  0
 10 12  1  0  0  0  0
 10 13  1  0  0  0  0
 13 14  1  0  0  0  0
 13 15  1  0  0  0  0
 15 16  1  0  0  0  0
 15 17  1  0  0  0  0
  1 18  1  0  0  0  0
 15 18  1  0  0  0  0
 18 19  1  0  0  0  0
 18 20  1  0  0  0  0
 13 21  1  0  0  0  0
 21 22  1  0  0  0  0
M  END
> <VM2 Rank>
12

> <Conf_Id>
2371

> <Probability>
2.86

> <Sum Probability>
45.27

> <Delta G>
0.317

> <G>
47.680

> <E>
21.017

> <-TS>
26.663

> <U+W>
3.132

> <U>
5.411

> <W>
-2.279

> <W(PB)>
-4.300

> <W(SA)>
2.021

> <Valence>
11.909

> <Coulomb>
-8.733

> <VdW>
2.236

> <VdW6>
-8.936

> <VdW12>
11.172

> <Bond>
0.223

> <Angle>
2.458

> <Pdih>
9.228

> <Idih>
0.000

> <Tether>
0.000

$$$$
VeraChem MOL file


 22 22  0  0  0  0  0  0  0  0999 V2000     
   19.9770   19.1296   20.8309 C   0  0  0  0  0  0  0  0  0  0  0  0
   20.9580   19.4488   20.4533 H   0  0  0  0  0  0  0  0  0  0  0  0
   19.4477   18.7062   19.9663 H   0  0  0  0  0  0  0  0  0  0  0  0
   19.1928   20.3661   21.3321 C   0  0  0  0  0  0  0  0  0  0  0  0
   18.9498   20.9841   20.4569 H   0  0  0  0  0  0  0  0  0  0  0  0
   18.2305   20.0696   21.7711 H   0  0  0  0  0  0  0  0  0  0  0  0
   20.0069   21.2348   22.3193 C   0  0  0  0  0  0  0  0  0  0  0  0
   19.6685   22.2769   22.2398 H   0  0  0  0  0  0  0  0  0  0  0  0
   21.0619   21.2443   22.0132 H   0  0  0  0  0  0  0  0  0  0  0  0
   19.9019   20.8093   23.8050 C   0  0  0  0  0  0  0  0  0  0  0  0
   20.7374   21.2689   24.3502 H   0  0  0  0  0  0  0  0  0  0  0  0
   18.9876   21.2444   24.2289 H   0  0  0  0  0  0  0  0  0  0  0  0
   19.8771   19.2896   24.0891 C   0  0  0  0  0  0  0  0  0  0  0  0
   18.8529   18.9224   23.9307 H   0  0  0  0  0  0  0  0  0  0  0  0
   20.8278   18.4536   23.2039 C   0  0  0  0  0  0  0  0  0  0  0  0
   21.7590   19.0022   23.0130 H   0  0  0  0  0  0  0  0  0  0  0  0
   21.1129   17.5484   23.7566 H   0  0  0  0  0  0  0  0  0  0  0  0
   20.1718   18.0058   21.8746 C   0  0  0  0  0  0  0  0  0  0  0  0
   20.7953   17.2224   21.4226 H   0  0  0  0  0  0  0  0  0  0  0  0
   19.2033   17.5327   22.0868 H   0  0  0  0  0  0  0  0  0  0  0  0
   20.2308   19.0892   25.4522 O   0  0  0  0  0  0  0  0  0  0  0  0
   19.5821   19.5911   25.9889 H   0  0  0  0  0  0  0  0  0  0  0  0
  1  2  1  0  0  0  0
  1  3  1  0  0  0  0
  1  4  1  0  0  0  0
  4  5  1  0  0  0  0
  4  6  1  0  0  0  0
  4  7  1  0  0  0  0
  7  8  1  0  0  0  0
  7  9  1  0  0  0  0
  7 10  1  0  0  0  0
 10 11  1  0  0  0  0
 10 12  1  0  0  0  0
 10 13  1  0  0  0  0
 13 14  1  0  0  0  0
 13 15  1  0  0  0  0
 15 16  1  0  0  0  0
 15 17  1  0  0  0  0
  1 18  1  0  0  0  0
 15 18  1  0  0  0  0
 18 19  1  0  0  0  0
 18 20  1  0  0  0  0
 13 21  1  0  0  0  0
 21 22  1  0  0  0  0
M  END
> <VM2 Rank>
13

> <Conf_Id>
1256

> <Probability>
2.85

> <Sum Probability>
48.12

> <Delta G>
0.320

> <G>
47.683

> <E>
21.025

> <-TS>
26.657

> <U+W>
3.141

> <U>
5.433

> <W>
-2.293

> <W(PB)>
-4.326

> <W(SA)>
2.033

> <Valence>
11.903

> <Coulomb>
-8.719

> <VdW>
2.250

> <VdW6>
-8.926

> <VdW12>
11.176

> <Bond>
0.223

> <Angle>
2.471

> <Pdih>
9.209

> <Idih>
0.000

> <Tether>
0.000

$$$$
VeraChem MOL file


 22 22  0  0  0  0  0  0  0  0999 V2000     
   19.5786   19.1193   21.0158 C   0  0  0  0  0  0  0  0  0  0  0  0
   19.6450   18.8663   19.9489 H   0  0  0  0  0  0  0  0  0  0  0  0
   18.5134   19.0575   21.2771 H   0  0  0  0  0  0  0  0  0  0  0  0
   20.1080   20.5609   21.1997 C   0  0  0  0  0  0  0  0  0  0  0  0
   21.2050   20.5432   21.2557 H   0  0  0  0  0  0  0  0  0  0  0  0
   19.8703   21.1443   20.2996 H   0  0  0  0  0  0  0  0  0  0  0  0
   19.5371   21.3182   22.4230 C   0  0  0  0  0  0  0  0  0  0  0  0
   18.5665   21.7553   22.1513 H   0  0  0  0  0  0  0  0  0  0  0  0
   20.1977   22.1692   22.6382 H   0  0  0  0  0  0  0  0  0  0  0  0
   19.3462   20.4872   23.7157 C   0  0  0  0  0  0  0  0  0  0  0  0
   19.2547   21.1879   24.5561 H   0  0  0  0  0  0  0  0  0  0  0  0
   18.3850   19.9592   23.6676 H   0  0  0  0  0  0  0  0  0  0  0  0
   20.4700   19.4667   24.0057 C   0  0  0  0  0  0  0  0  0  0  0  0
   21.4328   19.8683   23.6585 H   0  0  0  0  0  0  0  0  0  0  0  0
   20.2107   18.0984   23.3357 C   0  0  0  0  0  0  0  0  0  0  0  0
   20.8900   17.3575   23.7778 H   0  0  0  0  0  0  0  0  0  0  0  0
   19.1957   17.7608   23.5825 H   0  0  0  0  0  0  0  0  0  0  0  0
   20.4018   18.0695   21.8004 C   0  0  0  0  0  0  0  0  0  0  0  0
   20.1280   17.0688   21.4395 H   0  0  0  0  0  0  0  0  0  0  0  0
   21.4677   18.1915   21.5642 H   0  0  0  0  0  0  0  0  0  0  0  0
   20.5337   19.2578   25.4110 O   0  0  0  0  0  0  0  0  0  0  0  0
   20.7548   20.1231   25.8147 H   0  0  0  0  0  0  0  0  0  0  0  0
  1  2  1  0  0  0  0
  1  3  1  0  0  0  0
  1  4  1  0  0  0  0
  4  5  1  0  0  0  0
  4  6  1  0  0  0  0
  4  7  1  0  0  0  0
  7  8  1  0  0  0  0
  7  9  1  0  0  0  0
  7 10  1  0  0  0  0
 10 11  1  0  0  0  0
 10 12  1  0  0  0  0
 10 13  1  0  0  0  0
 13 14  1  0  0  0  0
 13 15  1  0  0  0  0
 15 16  1  0  0  0  0
 15 17  1  0  0  0  0
  1 18  1  0  0  0  0
 15 18  1  0  0  0  0
 18 19  1  0  0  0  0
 18 20  1  0  0  0  0
 13 21  1  0  0  0  0
 21 22  1  0  0  0  0
M  END
> <VM2 Rank>
14

> <Conf_Id>
2362

> <Probability>
2.82

> <Sum Probability>
50.94

> <Delta G>
0.327

> <G>
47.689

> <E>
21.017

> <-TS>
26.672

> <U+W>
3.132

> <U>
5.406

> <W>
-2.274

> <W(PB)>
-4.290

> <W(SA)>
2.016

> <Valence>
12.011

> <Coulomb>
-8.863

> <VdW>
2.258

> <VdW6>
-8.944

> <VdW12>
11.203

> <Bond>
0.224

> <Angle>
2.419

> <Pdih>
9.368

> <Idih>
0.000

> <Tether>
0.000

$$$$
VeraChem MOL file


 22 22  0  0  0  0  0  0  0  0999 V2000     
   20.3925   19.2599   20.9703 C   0  0  0  0  0  0  0  0  0  0  0  0
   21.3939   19.6894   21.1100 H   0  0  0  0  0  0  0  0  0  0  0  0
   20.3463   18.9624   19.9137 H   0  0  0  0  0  0  0  0  0  0  0  0
   19.3247   20.3480   21.2309 C   0  0  0  0  0  0  0  0  0  0  0  0
   19.2149   20.9431   20.3140 H   0  0  0  0  0  0  0  0  0  0  0  0
   18.3418   19.8947   21.4185 H   0  0  0  0  0  0  0  0  0  0  0  0
   19.7148   21.3145   22.3750 C   0  0  0  0  0  0  0  0  0  0  0  0
   19.0440   22.1839   22.3432 H   0  0  0  0  0  0  0  0  0  0  0  0
   20.7238   21.7083   22.1914 H   0  0  0  0  0  0  0  0  0  0  0  0
   19.6525   20.7082   23.7974 C   0  0  0  0  0  0  0  0  0  0  0  0
   20.0105   21.4658   24.5069 H   0  0  0  0  0  0  0  0  0  0  0  0
   18.6055   20.5160   24.0654 H   0  0  0  0  0  0  0  0  0  0  0  0
   20.4758   19.4159   23.9987 C   0  0  0  0  0  0  0  0  0  0  0  0
   21.4938   19.5657   23.6112 H   0  0  0  0  0  0  0  0  0  0  0  0
   19.8314   18.1930   23.3076 C   0  0  0  0  0  0  0  0  0  0  0  0
   18.7388   18.2825   23.3644 H   0  0  0  0  0  0  0  0  0  0  0  0
   20.0804   17.2788   23.8625 H   0  0  0  0  0  0  0  0  0  0  0  0
   20.2502   17.9818   21.8318 C   0  0  0  0  0  0  0  0  0  0  0  0
   19.5166   17.3134   21.3607 H   0  0  0  0  0  0  0  0  0  0  0  0
   21.2065   17.4416   21.8043 H   0  0  0  0  0  0  0  0  0  0  0  0
   20.5441   19.1568   25.3954 O   0  0  0  0  0  0  0  0  0  0  0  0
   21.1156   18.3686   25.5081 H   0  0  0  0  0  0  0  0  0  0  0  0
  1  2  1  0  0  0  0
  1  3  1  0  0  0  0
  1  4  1  0  0  0  0
  4  5  1  0  0  0  0
  4  6  1  0  0  0  0
  4  7  1  0  0  0  0
  7  8  1  0  0  0  0
  7  9  1  0  0  0  0
  7 10  1  0  0  0  0
 10 11  1  0  0  0  0
 10 12  1  0  0  0  0
 10 13  1  0  0  0  0
 13 14  1  0  0  0  0
 13 15  1  0  0  0  0
 15 16  1  0  0  0  0
 15 17  1  0  0  0  0
  1 18  1  0  0  0  0
 15 18  1  0  0  0  0
 18 19  1  0  0  0  0
 18 20  1  0  0  0  0
 13 21  1  0  0  0  0
 21 22  1  0  0  0  0
M  END
> <VM2 Rank>
15

> <Conf_Id>
1731

> <Probability>
2.76

> <Sum Probability>
53.70

> <Delta G>
0.338

> <G>
47.701

> <E>
21.028

> <-TS>
26.672

> <U+W>
3.143

> <U>
5.406

> <W>
-2.262

> <W(PB)>
-4.270

> <W(SA)>
2.008

> <Valence>
12.011

> <Coulomb>
-8.863

> <VdW>
2.258

> <VdW6>
-8.944

> <VdW12>
11.203

> <Bond>
0.224

> <Angle>
2.419

> <Pdih>
9.368

> <Idih>
0.000

> <Tether>
0.000

$$$$
VeraChem MOL file


 22 22  0  0  0  0  0  0  0  0999 V2000     
   20.2360   19.2812   20.9455 C   0  0  0  0  0  0  0  0  0  0  0  0
   21.2386   19.7283   20.9856 H   0  0  0  0  0  0  0  0  0  0  0  0
   20.0818   18.9738   19.9022 H   0  0  0  0  0  0  0  0  0  0  0  0
   19.1523   20.3257   21.3019 C   0  0  0  0  0  0  0  0  0  0  0  0
   18.9107   20.9081   20.4022 H   0  0  0  0  0  0  0  0  0  0  0  0
   18.2221   19.8090   21.5748 H   0  0  0  0  0  0  0  0  0  0  0  0
   19.5430   21.3196   22.4224 C   0  0  0  0  0  0  0  0  0  0  0  0
   18.6233   21.7816   22.8067 H   0  0  0  0  0  0  0  0  0  0  0  0
   20.1281   22.1397   21.9843 H   0  0  0  0  0  0  0  0  0  0  0  0
   20.3479   20.7337   23.6085 C   0  0  0  0  0  0  0  0  0  0  0  0
   21.4128   20.7044   23.3437 H   0  0  0  0  0  0  0  0  0  0  0  0
   20.2730   21.4385   24.4471 H   0  0  0  0  0  0  0  0  0  0  0  0
   19.9015   19.3267   24.0665 C   0  0  0  0  0  0  0  0  0  0  0  0
   18.8144   19.2239   23.9386 H   0  0  0  0  0  0  0  0  0  0  0  0
   20.6206   18.1992   23.2919 C   0  0  0  0  0  0  0  0  0  0  0  0
   21.7034   18.3780   23.3143 H   0  0  0  0  0  0  0  0  0  0  0  0
   20.4610   17.2519   23.8237 H   0  0  0  0  0  0  0  0  0  0  0  0
   20.1620   18.0105   21.8260 C   0  0  0  0  0  0  0  0  0  0  0  0
   20.7866   17.2309   21.3691 H   0  0  0  0  0  0  0  0  0  0  0  0
   19.1362   17.6176   21.8136 H   0  0  0  0  0  0  0  0  0  0  0  0
   20.2227   19.1813   25.4443 O   0  0  0  0  0  0  0  0  0  0  0  0
   19.7146   19.8671   25.9260 H   0  0  0  0  0  0  0  0  0  0  0  0
  1  2  1  0  0  0  0
  1  3  1  0  0  0  0
  1  4  1  0  0  0  0
  4  5  1  0  0  0  0
  4  6  1  0  0  0  0
  4  7  1  0  0  0  0
  7  8  1  0  0  0  0
  7  9  1  0  0  0  0
  7 10  1  0  0  0  0
 10 11  1  0  0  0  0
 10 12  1  0  0  0  0
 10 13  1  0  0  0  0
 13 14  1  0  0  0  0
 13 15  1  0  0  0  0
 15 16  1  0  0  0  0
 15 17  1  0  0  0  0
  1 18  1  0  0  0  0
 15 18  1  0  0  0  0
 18 19  1  0  0  0  0
 18 20  1  0  0  0  0
 13 21  1  0  0  0  0
 21 22  1  0  0  0  0
M  END
> <VM2 Rank>
16

> <Conf_Id>
2378

> <Probability>
2.65

> <Sum Probability>
56.34

> <Delta G>
0.364

> <G>
47.726

> <E>
21.054

> <-TS>
26.672

> <U+W>
3.169

> <U>
5.406

> <W>
-2.237

> <W(PB)>
-4.266

> <W(SA)>
2.030

> <Valence>
12.011

> <Coulomb>
-8.863

> <VdW>
2.258

> <VdW6>
-8.944

> <VdW12>
11.203

> <Bond>
0.224

> <Angle>
2.419

> <Pdih>
9.368

> <Idih>
0.000

> <Tether>
0.000

$$$$
VeraChem MOL file


 22 22  0  0  0  0  0  0  0  0999 V2000     
   19.4533   19.0425   21.0681 C   0  0  0  0  0  0  0  0  0  0  0  0
   19.4166   18.7473   20.0105 H   0  0  0  0  0  0  0  0  0  0  0  0
   18.4137   18.9998   21.4203 H   0  0  0  0  0  0  0  0  0  0  0  0
   19.9699   20.4973   21.1637 C   0  0  0  0  0  0  0  0  0  0  0  0
   21.0676   20.5254   21.1347 H   0  0  0  0  0  0  0  0  0  0  0  0
   19.6283   21.0387   20.2710 H   0  0  0  0  0  0  0  0  0  0  0  0
   19.4306   21.2488   22.4046 C   0  0  0  0  0  0  0  0  0  0  0  0
   18.3365   21.1560   22.4399 H   0  0  0  0  0  0  0  0  0  0  0  0
   19.6360   22.3208   22.2815 H   0  0  0  0  0  0  0  0  0  0  0  0
   20.0271   20.7949   23.7584 C   0  0  0  0  0  0  0  0  0  0  0  0
   21.0835   21.0893   23.8075 H   0  0  0  0  0  0  0  0  0  0  0  0
   19.5217   21.3527   24.5578 H   0  0  0  0  0  0  0  0  0  0  0  0
   19.9045   19.2838   24.0581 C   0  0  0  0  0  0  0  0  0  0  0  0
   18.8688   18.9583   23.8844 H   0  0  0  0  0  0  0  0  0  0  0  0
   20.8676   18.4327   23.1998 C   0  0  0  0  0  0  0  0  0  0  0  0
   21.8002   18.9909   23.0458 H   0  0  0  0  0  0  0  0  0  0  0  0
   21.1547   17.5273   23.7507 H   0  0  0  0  0  0  0  0  0  0  0  0
   20.3027   17.9939   21.8264 C   0  0  0  0  0  0  0  0  0  0  0  0
   21.1461   17.6906   21.1911 H   0  0  0  0  0  0  0  0  0  0  0  0
   19.6916   17.0910   21.9619 H   0  0  0  0  0  0  0  0  0  0  0  0
   20.2303   19.0842   25.4280 O   0  0  0  0  0  0  0  0  0  0  0  0
   20.0924   18.1319   25.6146 H   0  0  0  0  0  0  0  0  0  0  0  0
  1  2  1  0  0  0  0
  1  3  1  0  0  0  0
  1  4  1  0  0  0  0
  4  5  1  0  0  0  0
  4  6  1  0  0  0  0
  4  7  1  0  0  0  0
  7  8  1  0  0  0  0
  7  9  1  0  0  0  0
  7 10  1  0  0  0  0
 10 11  1  0  0  0  0
 10 12  1  0  0  0  0
 10 13  1  0  0  0  0
 13 14  1  0  0  0  0
 13 15  1  0  0  0  0
 15 16  1  0  0  0  0
 15 17  1  0  0  0  0
  1 18  1  0  0  0  0
 15 18  1  0  0  0  0
 18 19  1  0  0  0  0
 18 20  1  0  0  0  0
 13 21  1  0  0  0  0
 21 22  1  0  0  0  0
M  END
> <VM2 Rank>
17

> <Conf_Id>
2142

> <Probability>
2.61

> <Sum Probability>
58.96

> <Delta G>
0.371

> <G>
47.734

> <E>
21.061

> <-TS>
26.672

> <U+W>
3.177

> <U>
5.406

> <W>
-2.229

> <W(PB)>
-4.246

> <W(SA)>
2.017

> <Valence>
12.011

> <Coulomb>
-8.863

> <VdW>
2.258

> <VdW6>
-8.944

> <VdW12>
11.203

> <Bond>
0.224

> <Angle>
2.419

> <Pdih>
9.368

> <Idih>
0.000

> <Tether>
0.000

$$$$
VeraChem MOL file


 22 22  0  0  0  0  0  0  0  0999 V2000     
   20.3549   19.2282   20.9937 C   0  0  0  0  0  0  0  0  0  0  0  0
   21.4130   19.4312   21.2081 H   0  0  0  0  0  0  0  0  0  0  0  0
   20.3156   18.8922   19.9485 H   0  0  0  0  0  0  0  0  0  0  0  0
   19.5105   20.5205   21.1037 C   0  0  0  0  0  0  0  0  0  0  0  0
   19.7900   21.1921   20.2805 H   0  0  0  0  0  0  0  0  0  0  0  0
   18.4509   20.2782   20.9448 H   0  0  0  0  0  0  0  0  0  0  0  0
   19.6645   21.2960   22.4321 C   0  0  0  0  0  0  0  0  0  0  0  0
   18.9728   22.1493   22.4128 H   0  0  0  0  0  0  0  0  0  0  0  0
   20.6727   21.7289   22.4875 H   0  0  0  0  0  0  0  0  0  0  0  0
   19.3896   20.4661   23.7100 C   0  0  0  0  0  0  0  0  0  0  0  0
   19.3075   21.1694   24.5496 H   0  0  0  0  0  0  0  0  0  0  0  0
   18.4203   19.9562   23.6382 H   0  0  0  0  0  0  0  0  0  0  0  0
   20.5169   19.4562   24.0205 C   0  0  0  0  0  0  0  0  0  0  0  0
   21.4700   19.8969   23.6951 H   0  0  0  0  0  0  0  0  0  0  0  0
   20.3596   18.0783   23.3366 C   0  0  0  0  0  0  0  0  0  0  0  0
   21.3437   17.5917   23.3440 H   0  0  0  0  0  0  0  0  0  0  0  0
   19.7038   17.4378   23.9409 H   0  0  0  0  0  0  0  0  0  0  0  0
   19.8205   18.0827   21.8845 C   0  0  0  0  0  0  0  0  0  0  0  0
   20.0821   17.1208   21.4227 H   0  0  0  0  0  0  0  0  0  0  0  0
   18.7225   18.1126   21.8991 H   0  0  0  0  0  0  0  0  0  0  0  0
   20.5693   19.2500   25.4259 O   0  0  0  0  0  0  0  0  0  0  0  0
   19.6965   18.8890   25.6849 H   0  0  0  0  0  0  0  0  0  0  0  0
  1  2  1  0  0  0  0
  1  3  1  0  0  0  0
  1  4  1  0  0  0  0
  4  5  1  0  0  0  0
  4  6  1  0  0  0  0
  4  7  1  0  0  0  0
  7  8  1  0  0  0  0
  7  9  1  0  0  0  0
  7 10  1  0  0  0  0
 10 11  1  0  0  0  0
 10 12  1  0  0  0  0
 10 13  1  0  0  0  0
 13 14  1  0  0  0  0
 13 15  1  0  0  0  0
 15 16  1  0  0  0  0
 15 17  1  0  0  0  0
  1 18  1  0  0  0  0
 15 18  1  0  0  0  0
 18 19  1  0  0  0  0
 18 20  1  0  0  0  0
 13 21  1  0  0  0  0
 21 22  1  0  0  0  0
M  END
> <VM2 Rank>
18

> <Conf_Id>
278

> <Probability>
2.61

> <Sum Probability>
61.57

> <Delta G>
0.372

> <G>
47.735

> <E>
21.108

> <-TS>
26.627

> <U+W>
3.223

> <U>
5.233

> <W>
-2.010

> <W(PB)>
-4.024

> <W(SA)>
2.014

> <Valence>
12.274

> <Coulomb>
-9.233

> <VdW>
2.191

> <VdW6>
-8.952

> <VdW12>
11.143

> <Bond>
0.217

> <Angle>
2.514

> <Pdih>
9.543

> <Idih>
0.000

> <Tether>
0.000

$$$$
VeraChem MOL file


 22 22  0  0  0  0  0  0  0  0999 V2000     
   19.5173   19.0093   21.0852 C   0  0  0  0  0  0  0  0  0  0  0  0
   18.5615   18.6858   21.5194 H   0  0  0  0  0  0  0  0  0  0  0  0
   19.5021   18.6795   20.0374 H   0  0  0  0  0  0  0  0  0  0  0  0
   19.6331   20.5525   21.0904 C   0  0  0  0  0  0  0  0  0  0  0  0
   20.6205   20.8453   20.7079 H   0  0  0  0  0  0  0  0  0  0  0  0
   18.9038   20.9605   20.3773 H   0  0  0  0  0  0  0  0  0  0  0  0
   19.3952   21.2256   22.4615 C   0  0  0  0  0  0  0  0  0  0  0  0
   18.3385   21.1187   22.7424 H   0  0  0  0  0  0  0  0  0  0  0  0
   19.5673   22.3046   22.3479 H   0  0  0  0  0  0  0  0  0  0  0  0
   20.2892   20.7013   23.6117 C   0  0  0  0  0  0  0  0  0  0  0  0
   21.3468   20.7212   23.3186 H   0  0  0  0  0  0  0  0  0  0  0  0
   20.1885   21.3997   24.4535 H   0  0  0  0  0  0  0  0  0  0  0  0
   19.8809   19.2900   24.0899 C   0  0  0  0  0  0  0  0  0  0  0  0
   18.7903   19.1964   23.9876 H   0  0  0  0  0  0  0  0  0  0  0  0
   20.5435   18.1264   23.3165 C   0  0  0  0  0  0  0  0  0  0  0  0
   21.5341   17.9164   23.7411 H   0  0  0  0  0  0  0  0  0  0  0  0
   19.9427   17.2254   23.4970 H   0  0  0  0  0  0  0  0  0  0  0  0
   20.7068   18.3143   21.7877 C   0  0  0  0  0  0  0  0  0  0  0  0
   21.6301   18.8726   21.5816 H   0  0  0  0  0  0  0  0  0  0  0  0
   20.8562   17.3231   21.3382 H   0  0  0  0  0  0  0  0  0  0  0  0
   20.2201   19.1588   25.4640 O   0  0  0  0  0  0  0  0  0  0  0  0
   21.1903   19.2795   25.5219 H   0  0  0  0  0  0  0  0  0  0  0  0
  1  2  1  0  0  0  0
  1  3  1  0  0  0  0
  1  4  1  0  0  0  0
  4  5  1  0  0  0  0
  4  6  1  0  0  0  0
  4  7  1  0  0  0  0
  7  8  1  0  0  0  0
  7  9  1  0  0  0  0
  7 10  1  0  0  0  0
 10 11  1  0  0  0  0
 10 12  1  0  0  0  0
 10 13  1  0  0  0  0
 13 14  1  0  0  0  0
 13 15  1  0  0  0  0
 15 16  1  0  0  0  0
 15 17  1  0  0  0  0
  1 18  1  0  0  0  0
 15 18  1  0  0  0  0
 18 19  1  0  0  0  0
 18 20  1  0  0  0  0
 13 21  1  0  0  0  0
 21 22  1  0  0  0  0
M  END
> <VM2 Rank>
19

> <Conf_Id>
2386

> <Probability>
2.53

> <Sum Probability>
64.09

> <Delta G>
0.391

> <G>
47.754

> <E>
21.126

> <-TS>
26.627

> <U+W>
3.241

> <U>
5.233

> <W>
-1.991

> <W(PB)>
-4.009

> <W(SA)>
2.017

> <Valence>
12.274

> <Coulomb>
-9.233

> <VdW>
2.191

> <VdW6>
-8.952

> <VdW12>
11.143

> <Bond>
0.217

> <Angle>
2.513

> <Pdih>
9.544

> <Idih>
0.000

> <Tether>
0.000

$$$$
VeraChem MOL file


 22 22  0  0  0  0  0  0  0  0999 V2000     
   19.5787   19.1188   21.0163 C   0  0  0  0  0  0  0  0  0  0  0  0
   19.6450   18.8655   19.9494 H   0  0  0  0  0  0  0  0  0  0  0  0
   18.5136   19.0559   21.2779 H   0  0  0  0  0  0  0  0  0  0  0  0
   20.1070   20.5608   21.1994 C   0  0  0  0  0  0  0  0  0  0  0  0
   21.2040   20.5440   21.2544 H   0  0  0  0  0  0  0  0  0  0  0  0
   19.8679   21.1438   20.2994 H   0  0  0  0  0  0  0  0  0  0  0  0
   19.5371   21.3182   22.4231 C   0  0  0  0  0  0  0  0  0  0  0  0
   18.5667   21.7563   22.1522 H   0  0  0  0  0  0  0  0  0  0  0  0
   20.1986   22.1687   22.6377 H   0  0  0  0  0  0  0  0  0  0  0  0
   19.3471   20.4885   23.7168 C   0  0  0  0  0  0  0  0  0  0  0  0
   19.2663   21.1908   24.5574 H   0  0  0  0  0  0  0  0  0  0  0  0
   18.3827   19.9662   23.6716 H   0  0  0  0  0  0  0  0  0  0  0  0
   20.4689   19.4658   24.0055 C   0  0  0  0  0  0  0  0  0  0  0  0
   21.4320   19.8687   23.6612 H   0  0  0  0  0  0  0  0  0  0  0  0
   20.2099   18.0973   23.3353 C   0  0  0  0  0  0  0  0  0  0  0  0
   20.8896   17.3557   23.7759 H   0  0  0  0  0  0  0  0  0  0  0  0
   19.1939   17.7580   23.5757 H   0  0  0  0  0  0  0  0  0  0  0  0
   20.4037   18.0703   21.8006 C   0  0  0  0  0  0  0  0  0  0  0  0
   21.4697   18.1952   21.5660 H   0  0  0  0  0  0  0  0  0  0  0  0
   20.1330   17.0692   21.4381 H   0  0  0  0  0  0  0  0  0  0  0  0
   20.5337   19.2584   25.4101 O   0  0  0  0  0  0  0  0  0  0  0  0
   19.6614   18.9027   25.6778 H   0  0  0  0  0  0  0  0  0  0  0  0
  1  2  1  0  0  0  0
  1  3  1  0  0  0  0
  1  4  1  0  0  0  0
  4  5  1  0  0  0  0
  4  6  1  0  0  0  0
  4  7  1  0  0  0  0
  7  8  1  0  0  0  0
  7  9  1  0  0  0  0
  7 10  1  0  0  0  0
 10 11  1  0  0  0  0
 10 12  1  0  0  0  0
 10 13  1  0  0  0  0
 13 14  1  0  0  0  0
 13 15  1  0  0  0  0
 15 16  1  0  0  0  0
 15 17  1  0  0  0  0
  1 18  1  0  0  0  0
 15 18  1  0  0  0  0
 18 19  1  0  0  0  0
 18 20  1  0  0  0  0
 13 21  1  0  0  0  0
 21 22  1  0  0  0  0
M  END
> <VM2 Rank>
20

> <Conf_Id>
1017

> <Probability>
2.48

> <Sum Probability>
66.57

> <Delta G>
0.403

> <G>
47.766

> <E>
21.133

> <-TS>
26.633

> <U+W>
3.248

> <U>
5.336

> <W>
-2.088

> <W(PB)>
-4.098

> <W(SA)>
2.010

> <Valence>
12.390

> <Coulomb>
-9.270

> <VdW>
2.216

> <VdW6>
-8.967

> <VdW12>
11.183

> <Bond>
0.218

> <Angle>
2.427

> <Pdih>
9.745

> <Idih>
0.000

> <Tether>
0.000

$$$$
VeraChem MOL file


 22 22  0  0  0  0  0  0  0  0999 V2000     
   19.6873   19.0647   21.0362 C   0  0  0  0  0  0  0  0  0  0  0  0
   19.9158   18.7872   19.9981 H   0  0  0  0  0  0  0  0  0  0  0  0
   18.6474   18.7516   21.2009 H   0  0  0  0  0  0  0  0  0  0  0  0
   19.7873   20.6041   21.1510 C   0  0  0  0  0  0  0  0  0  0  0  0
   20.6225   20.9547   20.5293 H   0  0  0  0  0  0  0  0  0  0  0  0
   18.8824   21.0383   20.7041 H   0  0  0  0  0  0  0  0  0  0  0  0
   19.9717   21.1825   22.5743 C   0  0  0  0  0  0  0  0  0  0  0  0
   19.6669   22.2376   22.5469 H   0  0  0  0  0  0  0  0  0  0  0  0
   21.0391   21.2020   22.8261 H   0  0  0  0  0  0  0  0  0  0  0  0
   19.1653   20.4662   23.6900 C   0  0  0  0  0  0  0  0  0  0  0  0
   19.0002   21.1833   24.5047 H   0  0  0  0  0  0  0  0  0  0  0  0
   18.1663   20.2010   23.3205 H   0  0  0  0  0  0  0  0  0  0  0  0
   19.8451   19.2197   24.3090 C   0  0  0  0  0  0  0  0  0  0  0  0
   19.2281   18.9009   25.1614 H   0  0  0  0  0  0  0  0  0  0  0  0
   19.9757   18.0034   23.3661 C   0  0  0  0  0  0  0  0  0  0  0  0
   20.5632   17.2330   23.8831 H   0  0  0  0  0  0  0  0  0  0  0  0
   18.9807   17.5633   23.2201 H   0  0  0  0  0  0  0  0  0  0  0  0
   20.6194   18.2743   21.9825 C   0  0  0  0  0  0  0  0  0  0  0  0
   20.8280   17.3013   21.5171 H   0  0  0  0  0  0  0  0  0  0  0  0
   21.5915   18.7745   22.0846 H   0  0  0  0  0  0  0  0  0  0  0  0
   21.1342   19.5630   24.7979 O   0  0  0  0  0  0  0  0  0  0  0  0
   21.6585   19.7892   24.0043 H   0  0  0  0  0  0  0  0  0  0  0  0
  1  2  1  0  0  0  0
  1  3  1  0  0  0  0
  1  4  1  0  0  0  0
  4  5  1  0  0  0  0
  4  6  1  0  0  0  0
  4  7  1  0  0  0  0
  7  8  1  0  0  0  0
  7  9  1  0  0  0  0
  7 10  1  0  0  0  0
 10 11  1  0  0  0  0
 10 12  1  0  0  0  0
 10 13  1  0  0  0  0
 13 14  1  0  0  0  0
 13 15  1  0  0  0  0
 15 16  1  0  0  0  0
 15 17  1  0  0  0  0
  1 18  1  0  0  0  0
 15 18  1  0  0  0  0
 18 19  1  0  0  0  0
 18 20  1  0  0  0  0
 13 21  1  0  0  0  0
 21 22  1  0  0  0  0
M  END
> <VM2 Rank>
21

> <Conf_Id>
2556

> <Probability>
2.47

> <Sum Probability>
69.03

> <Delta G>
0.406

> <G>
47.768

> <E>
21.051

> <-TS>
26.717

> <U+W>
3.166

> <U>
4.701

> <W>
-1.534

> <W(PB)>
-3.530

> <W(SA)>
1.996

> <Valence>
12.586

> <Coulomb>
-9.999

> <VdW>
2.114

> <VdW6>
-9.790

> <VdW12>
11.904

> <Bond>
0.257

> <Angle>
3.349

> <Pdih>
8.981

> <Idih>
0.000

> <Tether>
0.000

$$$$
VeraChem MOL file


 22 22  0  0  0  0  0  0  0  0999 V2000     
   20.1674   19.1663   20.8608 C   0  0  0  0  0  0  0  0  0  0  0  0
   21.2583   19.2418   20.7552 H   0  0  0  0  0  0  0  0  0  0  0  0
   19.7932   18.8446   19.8793 H   0  0  0  0  0  0  0  0  0  0  0  0
   19.5843   20.5653   21.1641 C   0  0  0  0  0  0  0  0  0  0  0  0
   19.9399   21.2597   20.3907 H   0  0  0  0  0  0  0  0  0  0  0  0
   18.4912   20.5353   21.0595 H   0  0  0  0  0  0  0  0  0  0  0  0
   19.9540   21.1421   22.5514 C   0  0  0  0  0  0  0  0  0  0  0  0
   19.6642   22.2015   22.5625 H   0  0  0  0  0  0  0  0  0  0  0  0
   21.0413   21.1211   22.7075 H   0  0  0  0  0  0  0  0  0  0  0  0
   19.2193   20.4301   23.7134 C   0  0  0  0  0  0  0  0  0  0  0  0
   19.0779   21.1458   24.5338 H   0  0  0  0  0  0  0  0  0  0  0  0
   18.2058   20.1591   23.3908 H   0  0  0  0  0  0  0  0  0  0  0  0
   19.9226   19.1717   24.2755 C   0  0  0  0  0  0  0  0  0  0  0  0
   19.1588   18.5830   24.8038 H   0  0  0  0  0  0  0  0  0  0  0  0
   20.5955   18.2490   23.2330 C   0  0  0  0  0  0  0  0  0  0  0  0
   21.6117   18.6073   23.0215 H   0  0  0  0  0  0  0  0  0  0  0  0
   20.7206   17.2632   23.6992 H   0  0  0  0  0  0  0  0  0  0  0  0
   19.8257   18.0733   21.9013 C   0  0  0  0  0  0  0  0  0  0  0  0
   20.1083   17.1028   21.4711 H   0  0  0  0  0  0  0  0  0  0  0  0
   18.7425   18.0247   22.0774 H   0  0  0  0  0  0  0  0  0  0  0  0
   20.9171   19.5803   25.2076 O   0  0  0  0  0  0  0  0  0  0  0  0
   20.4673   20.1408   25.8733 H   0  0  0  0  0  0  0  0  0  0  0  0
  1  2  1  0  0  0  0
  1  3  1  0  0  0  0
  1  4  1  0  0  0  0
  4  5  1  0  0  0  0
  4  6  1  0  0  0  0
  4  7  1  0  0  0  0
  7  8  1  0  0  0  0
  7  9  1  0  0  0  0
  7 10  1  0  0  0  0
 10 11  1  0  0  0  0
 10 12  1  0  0  0  0
 10 13  1  0  0  0  0
 13 14  1  0  0  0  0
 13 15  1  0  0  0  0
 15 16  1  0  0  0  0
 15 17  1  0  0  0  0
  1 18  1  0  0  0  0
 15 18  1  0  0  0  0
 18 19  1  0  0  0  0
 18 20  1  0  0  0  0
 13 21  1  0  0  0  0
 21 22  1  0  0  0  0
M  END
> <VM2 Rank>
22

> <Conf_Id>
1770

> <Probability>
2.44

> <Sum Probability>
71.48

> <Delta G>
0.411

> <G>
47.774

> <E>
21.123

> <-TS>
26.651

> <U+W>
3.238

> <U>
5.651

> <W>
-2.413

> <W(PB)>
-4.418

> <W(SA)>
2.005

> <Valence>
11.811

> <Coulomb>
-8.308

> <VdW>
2.148

> <VdW6>
-9.144

> <VdW12>
11.292

> <Bond>
0.225

> <Angle>
2.646

> <Pdih>
8.941

> <Idih>
0.000

> <Tether>
0.000

$$$$
VeraChem MOL file


 22 22  0  0  0  0  0  0  0  0999 V2000     
   19.6920   18.9841   20.9456 C   0  0  0  0  0  0  0  0  0  0  0  0
   20.4034   18.7526   20.1410 H   0  0  0  0  0  0  0  0  0  0  0  0
   18.6997   18.7372   20.5439 H   0  0  0  0  0  0  0  0  0  0  0  0
   19.7582   20.5049   21.2211 C   0  0  0  0  0  0  0  0  0  0  0  0
   20.7978   20.8486   21.1322 H   0  0  0  0  0  0  0  0  0  0  0  0
   19.2105   21.0183   20.4191 H   0  0  0  0  0  0  0  0  0  0  0  0
   19.1831   20.9502   22.5849 C   0  0  0  0  0  0  0  0  0  0  0  0
   18.2924   20.3637   22.8460 H   0  0  0  0  0  0  0  0  0  0  0  0
   18.8416   21.9895   22.4850 H   0  0  0  0  0  0  0  0  0  0  0  0
   20.2379   20.9107   23.7197 C   0  0  0  0  0  0  0  0  0  0  0  0
   21.1359   21.4523   23.3954 H   0  0  0  0  0  0  0  0  0  0  0  0
   19.8514   21.4740   24.5795 H   0  0  0  0  0  0  0  0  0  0  0  0
   20.6573   19.5089   24.2145 C   0  0  0  0  0  0  0  0  0  0  0  0
   21.5166   19.6488   24.8858 H   0  0  0  0  0  0  0  0  0  0  0  0
   21.0959   18.5203   23.1057 C   0  0  0  0  0  0  0  0  0  0  0  0
   21.9252   18.9506   22.5295 H   0  0  0  0  0  0  0  0  0  0  0  0
   21.5096   17.6351   23.6062 H   0  0  0  0  0  0  0  0  0  0  0  0
   19.9706   18.0492   22.1468 C   0  0  0  0  0  0  0  0  0  0  0  0
   19.0401   17.8801   22.7024 H   0  0  0  0  0  0  0  0  0  0  0  0
   20.2448   17.0642   21.7452 H   0  0  0  0  0  0  0  0  0  0  0  0
   19.5910   18.9496   24.9687 O   0  0  0  0  0  0  0  0  0  0  0  0
   18.8388   18.8914   24.3470 H   0  0  0  0  0  0  0  0  0  0  0  0
  1  2  1  0  0  0  0
  1  3  1  0  0  0  0
  1  4  1  0  0  0  0
  4  5  1  0  0  0  0
  4  6  1  0  0  0  0
  4  7  1  0  0  0  0
  7  8  1  0  0  0  0
  7  9  1  0  0  0  0
  7 10  1  0  0  0  0
 10 11  1  0  0  0  0
 10 12  1  0  0  0  0
 10 13  1  0  0  0  0
 13 14  1  0  0  0  0
 13 15  1  0  0  0  0
 15 16  1  0  0  0  0
 15 17  1  0  0  0  0
  1 18  1  0  0  0  0
 15 18  1  0  0  0  0
 18 19  1  0  0  0  0
 18 20  1  0  0  0  0
 13 21  1  0  0  0  0
 21 22  1  0  0  0  0
M  END
> <VM2 Rank>
23

> <Conf_Id>
2551

> <Probability>
2.41

> <Sum Probability>
73.88

> <Delta G>
0.420

> <G>
47.783

> <E>
21.066

> <-TS>
26.717

> <U+W>
3.181

> <U>
4.701

> <W>
-1.520

> <W(PB)>
-3.523

> <W(SA)>
2.003

> <Valence>
12.586

> <Coulomb>
-9.999

> <VdW>
2.114

> <VdW6>
-9.790

> <VdW12>
11.904

> <Bond>
0.257

> <Angle>
3.349

> <Pdih>
8.980

> <Idih>
0.000

> <Tether>
0.000

$$$$
VeraChem MOL file


 22 22  0  0  0  0  0  0  0  0999 V2000     
   19.6690   19.0240   20.9200 C   0  0  0  0  0  0  0  0  0  0  0  0
   19.9330   18.8845   19.8628 H   0  0  0  0  0  0  0  0  0  0  0  0
   18.7063   18.5133   21.0581 H   0  0  0  0  0  0  0  0  0  0  0  0
   19.4870   20.5375   21.1756 C   0  0  0  0  0  0  0  0  0  0  0  0
   20.3823   21.0752   20.8351 H   0  0  0  0  0  0  0  0  0  0  0  0
   18.6640   20.8954   20.5421 H   0  0  0  0  0  0  0  0  0  0  0  0
   19.1817   20.9216   22.6430 C   0  0  0  0  0  0  0  0  0  0  0  0
   18.3288   20.3468   23.0293 H   0  0  0  0  0  0  0  0  0  0  0  0
   18.8713   21.9751   22.6566 H   0  0  0  0  0  0  0  0  0  0  0  0
   20.4109   20.7702   23.5720 C   0  0  0  0  0  0  0  0  0  0  0  0
   21.3190   21.0478   23.0214 H   0  0  0  0  0  0  0  0  0  0  0  0
   20.3325   21.5039   24.3849 H   0  0  0  0  0  0  0  0  0  0  0  0
   20.6078   19.3673   24.1942 C   0  0  0  0  0  0  0  0  0  0  0  0
   21.6596   19.2970   24.5073 H   0  0  0  0  0  0  0  0  0  0  0  0
   20.3076   18.1667   23.2671 C   0  0  0  0  0  0  0  0  0  0  0  0
   19.2361   17.9289   23.3034 H   0  0  0  0  0  0  0  0  0  0  0  0
   20.8192   17.2913   23.6875 H   0  0  0  0  0  0  0  0  0  0  0  0
   20.7462   18.3361   21.7921 C   0  0  0  0  0  0  0  0  0  0  0  0
   21.7038   18.8702   21.7260 H   0  0  0  0  0  0  0  0  0  0  0  0
   20.9256   17.3362   21.3741 H   0  0  0  0  0  0  0  0  0  0  0  0
   19.7757   19.2545   25.3430 O   0  0  0  0  0  0  0  0  0  0  0  0
   19.9991   20.0071   25.9288 H   0  0  0  0  0  0  0  0  0  0  0  0
  1  2  1  0  0  0  0
  1  3  1  0  0  0  0
  1  4  1  0  0  0  0
  4  5  1  0  0  0  0
  4  6  1  0  0  0  0
  4  7  1  0  0  0  0
  7  8  1  0  0  0  0
  7  9  1  0  0  0  0
  7 10  1  0  0  0  0
 10 11  1  0  0  0  0
 10 12  1  0  0  0  0
 10 13  1  0  0  0  0
 13 14  1  0  0  0  0
 13 15  1  0  0  0  0
 15 16  1  0  0  0  0
 15 17  1  0  0  0  0
  1 18  1  0  0  0  0
 15 18  1  0  0  0  0
 18 19  1  0  0  0  0
 18 20  1  0  0  0  0
 13 21  1  0  0  0  0
 21 22  1  0  0  0  0
M  END
> <VM2 Rank>
24

> <Conf_Id>
1200

> <Probability>
2.39

> <Sum Probability>
76.27

> <Delta G>
0.426

> <G>
47.788

> <E>
21.137

> <-TS>
26.651

> <U+W>
3.252

> <U>
5.651

> <W>
-2.399

> <W(PB)>
-4.407

> <W(SA)>
2.008

> <Valence>
11.811

> <Coulomb>
-8.308

> <VdW>
2.148

> <VdW6>
-9.144

> <VdW12>
11.292

> <Bond>
0.225

> <Angle>
2.645

> <Pdih>
8.941

> <Idih>
0.000

> <Tether>
0.000

$$$$
VeraChem MOL file


 22 22  0  0  0  0  0  0  0  0999 V2000     
   19.8804   19.0486   20.9018 C   0  0  0  0  0  0  0  0  0  0  0  0
   20.8901   19.1539   20.4820 H   0  0  0  0  0  0  0  0  0  0  0  0
   19.2772   18.5752   20.1153 H   0  0  0  0  0  0  0  0  0  0  0  0
   19.2926   20.4504   21.1821 C   0  0  0  0  0  0  0  0  0  0  0  0
   19.3635   21.0424   20.2595 H   0  0  0  0  0  0  0  0  0  0  0  0
   18.2192   20.3585   21.3971 H   0  0  0  0  0  0  0  0  0  0  0  0
   19.9809   21.2342   22.3250 C   0  0  0  0  0  0  0  0  0  0  0  0
   19.6222   22.2715   22.2817 H   0  0  0  0  0  0  0  0  0  0  0  0
   21.0673   21.2807   22.1695 H   0  0  0  0  0  0  0  0  0  0  0  0
   19.6463   20.6702   23.7275 C   0  0  0  0  0  0  0  0  0  0  0  0
   19.7111   21.4860   24.4588 H   0  0  0  0  0  0  0  0  0  0  0  0
   18.5997   20.3384   23.7463 H   0  0  0  0  0  0  0  0  0  0  0  0
   20.5648   19.5297   24.2241 C   0  0  0  0  0  0  0  0  0  0  0  0
   21.4775   19.9859   24.6340 H   0  0  0  0  0  0  0  0  0  0  0  0
   21.0095   18.5031   23.1552 C   0  0  0  0  0  0  0  0  0  0  0  0
   21.8873   18.8957   22.6259 H   0  0  0  0  0  0  0  0  0  0  0  0
   21.3635   17.5986   23.6670 H   0  0  0  0  0  0  0  0  0  0  0  0
   19.9265   18.1015   22.1244 C   0  0  0  0  0  0  0  0  0  0  0  0
   20.1608   17.0926   21.7587 H   0  0  0  0  0  0  0  0  0  0  0  0
   18.9402   18.0315   22.6034 H   0  0  0  0  0  0  0  0  0  0  0  0
   19.8849   18.8403   25.2669 O   0  0  0  0  0  0  0  0  0  0  0  0
   20.4918   18.1406   25.5857 H   0  0  0  0  0  0  0  0  0  0  0  0
  1  2  1  0  0  0  0
  1  3  1  0  0  0  0
  1  4  1  0  0  0  0
  4  5  1  0  0  0  0
  4  6  1  0  0  0  0
  4  7  1  0  0  0  0
  7  8  1  0  0  0  0
  7  9  1  0  0  0  0
  7 10  1  0  0  0  0
 10 11  1  0  0  0  0
 10 12  1  0  0  0  0
 10 13  1  0  0  0  0
 13 14  1  0  0  0  0
 13 15  1  0  0  0  0
 15 16  1  0  0  0  0
 15 17  1  0  0  0  0
  1 18  1  0  0  0  0
 15 18  1  0  0  0  0
 18 19  1  0  0  0  0
 18 20  1  0  0  0  0
 13 21  1  0  0  0  0
 21 22  1  0  0  0  0
M  END
> <VM2 Rank>
25

> <Conf_Id>
584

> <Probability>
2.26

> <Sum Probability>
78.53

> <Delta G>
0.458

> <G>
47.820

> <E>
21.169

> <-TS>
26.651

> <U+W>
3.284

> <U>
5.651

> <W>
-2.367

> <W(PB)>
-4.373

> <W(SA)>
2.007

> <Valence>
11.812

> <Coulomb>
-8.308

> <VdW>
2.147

> <VdW6>
-9.144

> <VdW12>
11.291

> <Bond>
0.225

> <Angle>
2.646

> <Pdih>
8.941

> <Idih>
0.000

> <Tether>
0.000

$$$$
VeraChem MOL file


 22 22  0  0  0  0  0  0  0  0999 V2000     
   19.8865   19.0518   20.8995 C   0  0  0  0  0  0  0  0  0  0  0  0
   20.8994   19.1572   20.4878 H   0  0  0  0  0  0  0  0  0  0  0  0
   19.2890   18.5803   20.1074 H   0  0  0  0  0  0  0  0  0  0  0  0
   19.2971   20.4533   21.1780 C   0  0  0  0  0  0  0  0  0  0  0  0
   19.3747   21.0469   20.2569 H   0  0  0  0  0  0  0  0  0  0  0  0
   18.2222   20.3615   21.3853 H   0  0  0  0  0  0  0  0  0  0  0  0
   19.9782   21.2342   22.3268 C   0  0  0  0  0  0  0  0  0  0  0  0
   19.6183   22.2712   22.2849 H   0  0  0  0  0  0  0  0  0  0  0  0
   21.0653   21.2825   22.1766 H   0  0  0  0  0  0  0  0  0  0  0  0
   19.6381   20.6647   23.7255 C   0  0  0  0  0  0  0  0  0  0  0  0
   19.6928   21.4820   24.4563 H   0  0  0  0  0  0  0  0  0  0  0  0
   18.5938   20.3249   23.7348 H   0  0  0  0  0  0  0  0  0  0  0  0
   20.5642   19.5302   24.2222 C   0  0  0  0  0  0  0  0  0  0  0  0
   21.4805   19.9898   24.6200 H   0  0  0  0  0  0  0  0  0  0  0  0
   21.0022   18.4961   23.1581 C   0  0  0  0  0  0  0  0  0  0  0  0
   21.8900   18.8736   22.6351 H   0  0  0  0  0  0  0  0  0  0  0  0
   21.3372   17.5904   23.6811 H   0  0  0  0  0  0  0  0  0  0  0  0
   19.9224   18.1024   22.1206 C   0  0  0  0  0  0  0  0  0  0  0  0
   20.1542   17.0932   21.7545 H   0  0  0  0  0  0  0  0  0  0  0  0
   18.9339   18.0351   22.5953 H   0  0  0  0  0  0  0  0  0  0  0  0
   19.8974   18.8453   25.2762 O   0  0  0  0  0  0  0  0  0  0  0  0
   19.6738   19.5180   25.9526 H   0  0  0  0  0  0  0  0  0  0  0  0
  1  2  1  0  0  0  0
  1  3  1  0  0  0  0
  1  4  1  0  0  0  0
  4  5  1  0  0  0  0
  4  6  1  0  0  0  0
  4  7  1  0  0  0  0
  7  8  1  0  0  0  0
  7  9  1  0  0  0  0
  7 10  1  0  0  0  0
 10 11  1  0  0  0  0
 10 12  1  0  0  0  0
 10 13  1  0  0  0  0
 13 14  1  0  0  0  0
 13 15  1  0  0  0  0
 15 16  1  0  0  0  0
 15 17  1  0  0  0  0
  1 18  1  0  0  0  0
 15 18  1  0  0  0  0
 18 19  1  0  0  0  0
 18 20  1  0  0  0  0
 13 21  1  0  0  0  0
 21 22  1  0  0  0  0
M  END
> <VM2 Rank>
26

> <Conf_Id>
1919

> <Probability>
2.19

> <Sum Probability>
80.72

> <Delta G>
0.476

> <G>
47.838

> <E>
21.157

> <-TS>
26.682

> <U+W>
3.272

> <U>
5.678

> <W>
-2.407

> <W(PB)>
-4.420

> <W(SA)>
2.013

> <Valence>
11.807

> <Coulomb>
-8.278

> <VdW>
2.149

> <VdW6>
-9.114

> <VdW12>
11.263

> <Bond>
0.224

> <Angle>
2.649

> <Pdih>
8.934

> <Idih>
0.000

> <Tether>
0.000

$$$$
VeraChem MOL file


 22 22  0  0  0  0  0  0  0  0999 V2000     
   19.6742   19.0260   20.9152 C   0  0  0  0  0  0  0  0  0  0  0  0
   19.9453   18.8878   19.8597 H   0  0  0  0  0  0  0  0  0  0  0  0
   18.7090   18.5179   21.0454 H   0  0  0  0  0  0  0  0  0  0  0  0
   19.4952   20.5394   21.1729 C   0  0  0  0  0  0  0  0  0  0  0  0
   20.3949   21.0751   20.8408 H   0  0  0  0  0  0  0  0  0  0  0  0
   18.6784   20.9014   20.5338 H   0  0  0  0  0  0  0  0  0  0  0  0
   19.1796   20.9210   22.6388 C   0  0  0  0  0  0  0  0  0  0  0  0
   18.3249   20.3451   23.0194 H   0  0  0  0  0  0  0  0  0  0  0  0
   18.8679   21.9741   22.6519 H   0  0  0  0  0  0  0  0  0  0  0  0
   20.4023   20.7710   23.5768 C   0  0  0  0  0  0  0  0  0  0  0  0
   21.3130   21.0627   23.0384 H   0  0  0  0  0  0  0  0  0  0  0  0
   20.3080   21.4927   24.3991 H   0  0  0  0  0  0  0  0  0  0  0  0
   20.6067   19.3664   24.1923 C   0  0  0  0  0  0  0  0  0  0  0  0
   21.6620   19.2980   24.4936 H   0  0  0  0  0  0  0  0  0  0  0  0
   20.2961   18.1675   23.2663 C   0  0  0  0  0  0  0  0  0  0  0  0
   20.7983   17.2857   23.6848 H   0  0  0  0  0  0  0  0  0  0  0  0
   19.2217   17.9416   23.2959 H   0  0  0  0  0  0  0  0  0  0  0  0
   20.7432   18.3337   21.7936 C   0  0  0  0  0  0  0  0  0  0  0  0
   20.9206   17.3329   21.3768 H   0  0  0  0  0  0  0  0  0  0  0  0
   21.7033   18.8639   21.7325 H   0  0  0  0  0  0  0  0  0  0  0  0
   19.7886   19.2530   25.3511 O   0  0  0  0  0  0  0  0  0  0  0  0
   19.9738   18.3739   25.7421 H   0  0  0  0  0  0  0  0  0  0  0  0
  1  2  1  0  0  0  0
  1  3  1  0  0  0  0
  1  4  1  0  0  0  0
  4  5  1  0  0  0  0
  4  6  1  0  0  0  0
  4  7  1  0  0  0  0
  7  8  1  0  0  0  0
  7  9  1  0  0  0  0
  7 10  1  0  0  0  0
 10 11  1  0  0  0  0
 10 12  1  0  0  0  0
 10 13  1  0  0  0  0
 13 14  1  0  0  0  0
 13 15  1  0  0  0  0
 15 16  1  0  0  0  0
 15 17  1  0  0  0  0
  1 18  1  0  0  0  0
 15 18  1  0  0  0  0
 18 19  1  0  0  0  0
 18 20  1  0  0  0  0
 13 21  1  0  0  0  0
 21 22  1  0  0  0  0
M  END
> <VM2 Rank>
27

> <Conf_Id>
1514

> <Probability>
2.17

> <Sum Probability>
82.90

> <Delta G>
0.481

> <G>
47.844

> <E>
21.162

> <-TS>
26.682

> <U+W>
3.277

> <U>
5.678

> <W>
-2.401

> <W(PB)>
-4.416

> <W(SA)>
2.015

> <Valence>
11.807

> <Coulomb>
-8.278

> <VdW>
2.149

> <VdW6>
-9.114

> <VdW12>
11.263

> <Bond>
0.224

> <Angle>
2.649

> <Pdih>
8.934

> <Idih>
0.000

> <Tether>
0.000

$$$$
VeraChem MOL file


 22 22  0  0  0  0  0  0  0  0999 V2000     
   19.8801   19.0818   20.7940 C   0  0  0  0  0  0  0  0  0  0  0  0
   20.5419   19.3598   19.9624 H   0  0  0  0  0  0  0  0  0  0  0  0
   19.1255   18.4104   20.3619 H   0  0  0  0  0  0  0  0  0  0  0  0
   19.1567   20.3502   21.3072 C   0  0  0  0  0  0  0  0  0  0  0  0
   18.9038   20.9713   20.4371 H   0  0  0  0  0  0  0  0  0  0  0  0
   18.1944   20.0682   21.7559 H   0  0  0  0  0  0  0  0  0  0  0  0
   19.9633   21.2027   22.3137 C   0  0  0  0  0  0  0  0  0  0  0  0
   19.6071   22.2395   22.2432 H   0  0  0  0  0  0  0  0  0  0  0  0
   21.0271   21.2265   22.0411 H   0  0  0  0  0  0  0  0  0  0  0  0
   19.7773   20.7389   23.7798 C   0  0  0  0  0  0  0  0  0  0  0  0
   20.1693   21.5232   24.4403 H   0  0  0  0  0  0  0  0  0  0  0  0
   18.7049   20.6614   24.0034 H   0  0  0  0  0  0  0  0  0  0  0  0
   20.4731   19.4101   24.1461 C   0  0  0  0  0  0  0  0  0  0  0  0
   21.5608   19.5579   24.0827 H   0  0  0  0  0  0  0  0  0  0  0  0
   20.0937   18.2122   23.2471 C   0  0  0  0  0  0  0  0  0  0  0  0
   20.4688   17.2997   23.7290 H   0  0  0  0  0  0  0  0  0  0  0  0
   19.0031   18.1025   23.1883 H   0  0  0  0  0  0  0  0  0  0  0  0
   20.7161   18.2958   21.8327 C   0  0  0  0  0  0  0  0  0  0  0  0
   21.7214   18.7333   21.9019 H   0  0  0  0  0  0  0  0  0  0  0  0
   20.8647   17.2775   21.4480 H   0  0  0  0  0  0  0  0  0  0  0  0
   20.1257   19.0865   25.4864 O   0  0  0  0  0  0  0  0  0  0  0  0
   20.4189   19.8374   26.0437 H   0  0  0  0  0  0  0  0  0  0  0  0
  1  2  1  0  0  0  0
  1  3  1  0  0  0  0
  1  4  1  0  0  0  0
  4  5  1  0  0  0  0
  4  6  1  0  0  0  0
  4  7  1  0  0  0  0
  7  8  1  0  0  0  0
  7  9  1  0  0  0  0
  7 10  1  0  0  0  0
 10 11  1  0  0  0  0
 10 12  1  0  0  0  0
 10 13  1  0  0  0  0
 13 14  1  0  0  0  0
 13 15  1  0  0  0  0
 15 16  1  0  0  0  0
 15 17  1  0  0  0  0
  1 18  1  0  0  0  0
 15 18  1  0  0  0  0
 18 19  1  0  0  0  0
 18 20  1  0  0  0  0
 13 21  1  0  0  0  0
 21 22  1  0  0  0  0
M  END
> <VM2 Rank>
28

> <Conf_Id>
1696

> <Probability>
1.79

> <Sum Probability>
84.69

> <Delta G>
0.595

> <G>
47.958

> <E>
21.387

> <-TS>
26.571

> <U+W>
3.502

> <U>
5.864

> <W>
-2.362

> <W(PB)>
-4.366

> <W(SA)>
2.004

> <Valence>
12.329

> <Coulomb>
-8.532

> <VdW>
2.068

> <VdW6>
-8.866

> <VdW12>
10.934

> <Bond>
0.215

> <Angle>
2.565

> <Pdih>
9.548

> <Idih>
0.000

> <Tether>
0.000

$$$$
VeraChem MOL file


 22 22  0  0  0  0  0  0  0  0999 V2000     
   19.9799   19.1072   20.7840 C   0  0  0  0  0  0  0  0  0  0  0  0
   20.8665   18.8531   20.1870 H   0  0  0  0  0  0  0  0  0  0  0  0
   19.1232   18.9989   20.1049 H   0  0  0  0  0  0  0  0  0  0  0  0
   20.0984   20.5897   21.2126 C   0  0  0  0  0  0  0  0  0  0  0  0
   21.1441   20.8183   21.4596 H   0  0  0  0  0  0  0  0  0  0  0  0
   19.8595   21.2143   20.3410 H   0  0  0  0  0  0  0  0  0  0  0  0
   19.1888   21.0057   22.3915 C   0  0  0  0  0  0  0  0  0  0  0  0
   18.2106   20.5103   22.3241 H   0  0  0  0  0  0  0  0  0  0  0  0
   18.9915   22.0829   22.3051 H   0  0  0  0  0  0  0  0  0  0  0  0
   19.8424   20.7554   23.7733 C   0  0  0  0  0  0  0  0  0  0  0  0
   20.8440   21.2054   23.7885 H   0  0  0  0  0  0  0  0  0  0  0  0
   19.2573   21.2913   24.5319 H   0  0  0  0  0  0  0  0  0  0  0  0
   19.9407   19.2747   24.1996 C   0  0  0  0  0  0  0  0  0  0  0  0
   18.9225   18.8870   24.3477 H   0  0  0  0  0  0  0  0  0  0  0  0
   20.6661   18.3578   23.1896 C   0  0  0  0  0  0  0  0  0  0  0  0
   21.6459   18.7746   22.9228 H   0  0  0  0  0  0  0  0  0  0  0  0
   20.8651   17.4004   23.6892 H   0  0  0  0  0  0  0  0  0  0  0  0
   19.8263   18.0695   21.9220 C   0  0  0  0  0  0  0  0  0  0  0  0
   20.1084   17.0852   21.5240 H   0  0  0  0  0  0  0  0  0  0  0  0
   18.7668   17.9820   22.1987 H   0  0  0  0  0  0  0  0  0  0  0  0
   20.6434   19.2181   25.4343 O   0  0  0  0  0  0  0  0  0  0  0  0
   20.1399   19.7665   26.0717 H   0  0  0  0  0  0  0  0  0  0  0  0
  1  2  1  0  0  0  0
  1  3  1  0  0  0  0
  1  4  1  0  0  0  0
  4  5  1  0  0  0  0
  4  6  1  0  0  0  0
  4  7  1  0  0  0  0
  7  8  1  0  0  0  0
  7  9  1  0  0  0  0
  7 10  1  0  0  0  0
 10 11  1  0  0  0  0
 10 12  1  0  0  0  0
 10 13  1  0  0  0  0
 13 14  1  0  0  0  0
 13 15  1  0  0  0  0
 15 16  1  0  0  0  0
 15 17  1  0  0  0  0
  1 18  1  0  0  0  0
 15 18  1  0  0  0  0
 18 19  1  0  0  0  0
 18 20  1  0  0  0  0
 13 21  1  0  0  0  0
 21 22  1  0  0  0  0
M  END
> <VM2 Rank>
29

> <Conf_Id>
1363

> <Probability>
1.75

> <Sum Probability>
86.44

> <Delta G>
0.611

> <G>
47.973

> <E>
21.402

> <-TS>
26.571

> <U+W>
3.518

> <U>
5.864

> <W>
-2.347

> <W(PB)>
-4.357

> <W(SA)>
2.010

> <Valence>
12.329

> <Coulomb>
-8.532

> <VdW>
2.068

> <VdW6>
-8.866

> <VdW12>
10.934

> <Bond>
0.215

> <Angle>
2.565

> <Pdih>
9.548

> <Idih>
0.000

> <Tether>
0.000

$$$$
VeraChem MOL file


 22 22  0  0  0  0  0  0  0  0999 V2000     
   19.8806   19.0818   20.7947 C   0  0  0  0  0  0  0  0  0  0  0  0
   20.5425   19.3589   19.9628 H   0  0  0  0  0  0  0  0  0  0  0  0
   19.1257   18.4105   20.3628 H   0  0  0  0  0  0  0  0  0  0  0  0
   19.1579   20.3512   21.3066 C   0  0  0  0  0  0  0  0  0  0  0  0
   18.9076   20.9726   20.4358 H   0  0  0  0  0  0  0  0  0  0  0  0
   18.1942   20.0708   21.7531 H   0  0  0  0  0  0  0  0  0  0  0  0
   19.9636   21.2031   22.3144 C   0  0  0  0  0  0  0  0  0  0  0  0
   19.6085   22.2403   22.2439 H   0  0  0  0  0  0  0  0  0  0  0  0
   21.0279   21.2261   22.0435 H   0  0  0  0  0  0  0  0  0  0  0  0
   19.7751   20.7385   23.7797 C   0  0  0  0  0  0  0  0  0  0  0  0
   20.1703   21.5188   24.4434 H   0  0  0  0  0  0  0  0  0  0  0  0
   18.7023   20.6670   24.0017 H   0  0  0  0  0  0  0  0  0  0  0  0
   20.4704   19.4095   24.1451 C   0  0  0  0  0  0  0  0  0  0  0  0
   21.5577   19.5597   24.0821 H   0  0  0  0  0  0  0  0  0  0  0  0
   20.0926   18.2102   23.2469 C   0  0  0  0  0  0  0  0  0  0  0  0
   20.4706   17.2979   23.7274 H   0  0  0  0  0  0  0  0  0  0  0  0
   19.0027   18.0972   23.1827 H   0  0  0  0  0  0  0  0  0  0  0  0
   20.7165   18.2959   21.8335 C   0  0  0  0  0  0  0  0  0  0  0  0
   21.7212   18.7346   21.9040 H   0  0  0  0  0  0  0  0  0  0  0  0
   20.8668   17.2782   21.4479 H   0  0  0  0  0  0  0  0  0  0  0  0
   20.1294   19.0877   25.4862 O   0  0  0  0  0  0  0  0  0  0  0  0
   19.1607   18.9444   25.4983 H   0  0  0  0  0  0  0  0  0  0  0  0
  1  2  1  0  0  0  0
  1  3  1  0  0  0  0
  1  4  1  0  0  0  0
  4  5  1  0  0  0  0
  4  6  1  0  0  0  0
  4  7  1  0  0  0  0
  7  8  1  0  0  0  0
  7  9  1  0  0  0  0
  7 10  1  0  0  0  0
 10 11  1  0  0  0  0
 10 12  1  0  0  0  0
 10 13  1  0  0  0  0
 13 14  1  0  0  0  0
 13 15  1  0  0  0  0
 15 16  1  0  0  0  0
 15 17  1  0  0  0  0
  1 18  1  0  0  0  0
 15 18  1  0  0  0  0
 18 19  1  0  0  0  0
 18 20  1  0  0  0  0
 13 21  1  0  0  0  0
 21 22  1  0  0  0  0
M  END
> <VM2 Rank>
30

> <Conf_Id>
386

> <Probability>
1.72

> <Sum Probability>
88.16

> <Delta G>
0.621

> <G>
47.984

> <E>
21.428

> <-TS>
26.556

> <U+W>
3.543

> <U>
5.491

> <W>
-1.948

> <W(PB)>
-3.950

> <W(SA)>
2.002

> <Valence>
12.680

> <Coulomb>
-9.215

> <VdW>
2.026

> <VdW6>
-8.898

> <VdW12>
10.924

> <Bond>
0.211

> <Angle>
2.587

> <Pdih>
9.882

> <Idih>
0.000

> <Tether>
0.000

$$$$
VeraChem MOL file


 22 22  0  0  0  0  0  0  0  0999 V2000     
   19.9799   19.1071   20.7847 C   0  0  0  0  0  0  0  0  0  0  0  0
   20.8668   18.8536   20.1879 H   0  0  0  0  0  0  0  0  0  0  0  0
   19.1235   18.9978   20.1053 H   0  0  0  0  0  0  0  0  0  0  0  0
   20.0966   20.5901   21.2124 C   0  0  0  0  0  0  0  0  0  0  0  0
   21.1423   20.8209   21.4571 H   0  0  0  0  0  0  0  0  0  0  0  0
   19.8552   21.2137   20.3407 H   0  0  0  0  0  0  0  0  0  0  0  0
   19.1880   21.0057   22.3922 C   0  0  0  0  0  0  0  0  0  0  0  0
   18.2103   20.5091   22.3264 H   0  0  0  0  0  0  0  0  0  0  0  0
   18.9894   22.0827   22.3060 H   0  0  0  0  0  0  0  0  0  0  0  0
   19.8440   20.7561   23.7728 C   0  0  0  0  0  0  0  0  0  0  0  0
   20.8427   21.2117   23.7868 H   0  0  0  0  0  0  0  0  0  0  0  0
   19.2583   21.2867   24.5350 H   0  0  0  0  0  0  0  0  0  0  0  0
   19.9430   19.2753   24.1980 C   0  0  0  0  0  0  0  0  0  0  0  0
   18.9243   18.8896   24.3465 H   0  0  0  0  0  0  0  0  0  0  0  0
   20.6683   18.3567   23.1891 C   0  0  0  0  0  0  0  0  0  0  0  0
   21.6480   18.7705   22.9171 H   0  0  0  0  0  0  0  0  0  0  0  0
   20.8647   17.3982   23.6879 H   0  0  0  0  0  0  0  0  0  0  0  0
   19.8267   18.0694   21.9228 C   0  0  0  0  0  0  0  0  0  0  0  0
   18.7674   17.9828   22.2006 H   0  0  0  0  0  0  0  0  0  0  0  0
   20.1072   17.0849   21.5241 H   0  0  0  0  0  0  0  0  0  0  0  0
   20.6394   19.2175   25.4350 O   0  0  0  0  0  0  0  0  0  0  0  0
   21.5434   19.5507   25.2592 H   0  0  0  0  0  0  0  0  0  0  0  0
  1  2  1  0  0  0  0
  1  3  1  0  0  0  0
  1  4  1  0  0  0  0
  4  5  1  0  0  0  0
  4  6  1  0  0  0  0
  4  7  1  0  0  0  0
  7  8  1  0  0  0  0
  7  9  1  0  0  0  0
  7 10  1  0  0  0  0
 10 11  1  0  0  0  0
 10 12  1  0  0  0  0
 10 13  1  0  0  0  0
 13 14  1  0  0  0  0
 13 15  1  0  0  0  0
 15 16  1  0  0  0  0
 15 17  1  0  0  0  0
  1 18  1  0  0  0  0
 15 18  1  0  0  0  0
 18 19  1  0  0  0  0
 18 20  1  0  0  0  0
 13 21  1  0  0  0  0
 21 22  1  0  0  0  0
M  END
> <VM2 Rank>
31

> <Conf_Id>
2290

> <Probability>
1.71

> <Sum Probability>
89.86

> <Delta G>
0.626

> <G>
47.988

> <E>
21.432

> <-TS>
26.556

> <U+W>
3.548

> <U>
5.491

> <W>
-1.943

> <W(PB)>
-3.951

> <W(SA)>
2.008

> <Valence>
12.680

> <Coulomb>
-9.215

> <VdW>
2.026

> <VdW6>
-8.898

> <VdW12>
10.924

> <Bond>
0.211

> <Angle>
2.587

> <Pdih>
9.882

> <Idih>
0.000

> <Tether>
0.000

$$$$
VeraChem MOL file


 22 22  0  0  0  0  0  0  0  0999 V2000     
   19.4747   19.0051   21.0683 C   0  0  0  0  0  0  0  0  0  0  0  0
   19.4514   18.6674   20.0231 H   0  0  0  0  0  0  0  0  0  0  0  0
   18.5381   18.6436   21.5142 H   0  0  0  0  0  0  0  0  0  0  0  0
   19.4849   20.5529   21.0694 C   0  0  0  0  0  0  0  0  0  0  0  0
   20.1172   20.9066   20.2436 H   0  0  0  0  0  0  0  0  0  0  0  0
   18.4692   20.9006   20.8363 H   0  0  0  0  0  0  0  0  0  0  0  0
   19.9645   21.2392   22.3711 C   0  0  0  0  0  0  0  0  0  0  0  0
   19.5934   22.2732   22.3660 H   0  0  0  0  0  0  0  0  0  0  0  0
   21.0600   21.3202   22.3614 H   0  0  0  0  0  0  0  0  0  0  0  0
   19.5119   20.5498   23.6806 C   0  0  0  0  0  0  0  0  0  0  0  0
   19.4726   21.3129   24.4692 H   0  0  0  0  0  0  0  0  0  0  0  0
   18.4920   20.1563   23.5828 H   0  0  0  0  0  0  0  0  0  0  0  0
   20.4816   19.4406   24.1460 C   0  0  0  0  0  0  0  0  0  0  0  0
   21.5047   19.8422   24.1161 H   0  0  0  0  0  0  0  0  0  0  0  0
   20.4388   18.1488   23.3014 C   0  0  0  0  0  0  0  0  0  0  0  0
   21.2074   17.4648   23.6840 H   0  0  0  0  0  0  0  0  0  0  0  0
   19.4768   17.6431   23.4589 H   0  0  0  0  0  0  0  0  0  0  0  0
   20.6743   18.3413   21.7827 C   0  0  0  0  0  0  0  0  0  0  0  0
   20.8268   17.3478   21.3393 H   0  0  0  0  0  0  0  0  0  0  0  0
   21.5997   18.9034   21.5968 H   0  0  0  0  0  0  0  0  0  0  0  0
   20.1553   19.1002   25.4874 O   0  0  0  0  0  0  0  0  0  0  0  0
   20.8115   18.4325   25.7774 H   0  0  0  0  0  0  0  0  0  0  0  0
  1  2  1  0  0  0  0
  1  3  1  0  0  0  0
  1  4  1  0  0  0  0
  4  5  1  0  0  0  0
  4  6  1  0  0  0  0
  4  7  1  0  0  0  0
  7  8  1  0  0  0  0
  7  9  1  0  0  0  0
  7 10  1  0  0  0  0
 10 11  1  0  0  0  0
 10 12  1  0  0  0  0
 10 13  1  0  0  0  0
 13 14  1  0  0  0  0
 13 15  1  0  0  0  0
 15 16  1  0  0  0  0
 15 17  1  0  0  0  0
  1 18  1  0  0  0  0
 15 18  1  0  0  0  0
 18 19  1  0  0  0  0
 18 20  1  0  0  0  0
 13 21  1  0  0  0  0
 21 22  1  0  0  0  0
M  END
> <VM2 Rank>
32

> <Conf_Id>
499

> <Probability>
1.67

> <Sum Probability>
91.53

> <Delta G>
0.638

> <G>
48.000

> <E>
21.429

> <-TS>
26.571

> <U+W>
3.544

> <U>
5.864

> <W>
-2.320

> <W(PB)>
-4.334

> <W(SA)>
2.014

> <Valence>
12.328

> <Coulomb>
-8.532

> <VdW>
2.068

> <VdW6>
-8.866

> <VdW12>
10.934

> <Bond>
0.215

> <Angle>
2.565

> <Pdih>
9.548

> <Idih>
0.000

> <Tether>
0.000

$$$$
VeraChem MOL file


 22 22  0  0  0  0  0  0  0  0999 V2000     
   20.0825   19.0796   20.9941 C   0  0  0  0  0  0  0  0  0  0  0  0
   20.7580   18.8523   20.1581 H   0  0  0  0  0  0  0  0  0  0  0  0
   19.0662   19.0041   20.5837 H   0  0  0  0  0  0  0  0  0  0  0  0
   20.3373   20.5341   21.4535 C   0  0  0  0  0  0  0  0  0  0  0  0
   21.3338   20.6436   21.9000 H   0  0  0  0  0  0  0  0  0  0  0  0
   20.3405   21.1677   20.5560 H   0  0  0  0  0  0  0  0  0  0  0  0
   19.2387   21.0630   22.4032 C   0  0  0  0  0  0  0  0  0  0  0  0
   18.2638   20.6602   22.0967 H   0  0  0  0  0  0  0  0  0  0  0  0
   19.1582   22.1513   22.2768 H   0  0  0  0  0  0  0  0  0  0  0  0
   19.4693   20.7773   23.9084 C   0  0  0  0  0  0  0  0  0  0  0  0
   20.1810   21.5136   24.3058 H   0  0  0  0  0  0  0  0  0  0  0  0
   18.5263   20.9758   24.4340 H   0  0  0  0  0  0  0  0  0  0  0  0
   19.9516   19.3606   24.3043 C   0  0  0  0  0  0  0  0  0  0  0  0
   19.5585   19.1661   25.3126 H   0  0  0  0  0  0  0  0  0  0  0  0
   19.4639   18.2114   23.3870 C   0  0  0  0  0  0  0  0  0  0  0  0
   19.5188   17.2832   23.9705 H   0  0  0  0  0  0  0  0  0  0  0  0
   18.4006   18.3503   23.1526 H   0  0  0  0  0  0  0  0  0  0  0  0
   20.2727   17.9947   22.0781 C   0  0  0  0  0  0  0  0  0  0  0  0
   19.9666   17.0329   21.6444 H   0  0  0  0  0  0  0  0  0  0  0  0
   21.3409   17.8784   22.3025 H   0  0  0  0  0  0  0  0  0  0  0  0
   21.3701   19.3573   24.3784 O   0  0  0  0  0  0  0  0  0  0  0  0
   21.6649   19.4792   23.4537 H   0  0  0  0  0  0  0  0  0  0  0  0
  1  2  1  0  0  0  0
  1  3  1  0  0  0  0
  1  4  1  0  0  0  0
  4  5  1  0  0  0  0
  4  6  1  0  0  0  0
  4  7  1  0  0  0  0
  7  8  1  0  0  0  0
  7  9  1  0  0  0  0
  7 10  1  0  0  0  0
 10 11  1  0  0  0  0
 10 12  1  0  0  0  0
 10 13  1  0  0  0  0
 13 14  1  0  0  0  0
 13 15  1  0  0  0  0
 15 16  1  0  0  0  0
 15 17  1  0  0  0  0
  1 18  1  0  0  0  0
 15 18  1  0  0  0  0
 18 19  1  0  0  0  0
 18 20  1  0  0  0  0
 13 21  1  0  0  0  0
 21 22  1  0  0  0  0
M  END
> <VM2 Rank>
33

> <Conf_Id>
2330

> <Probability>
1.25

> <Sum Probability>
92.78

> <Delta G>
0.810

> <G>
48.173

> <E>
21.150

> <-TS>
27.023

> <U+W>
3.265

> <U>
4.573

> <W>
-1.308

> <W(PB)>
-3.291

> <W(SA)>
1.984

> <Valence>
12.697

> <Coulomb>
-10.358

> <VdW>
2.234

> <VdW6>
-10.225

> <VdW12>
12.459

> <Bond>
0.281

> <Angle>
3.786

> <Pdih>
8.630

> <Idih>
0.000

> <Tether>
0.000

$$$$
VeraChem MOL file


 22 22  0  0  0  0  0  0  0  0999 V2000     
   19.3351   18.8676   21.4058 C   0  0  0  0  0  0  0  0  0  0  0  0
   19.0814   18.4640   20.4159 H   0  0  0  0  0  0  0  0  0  0  0  0
   18.5656   18.4871   22.0896 H   0  0  0  0  0  0  0  0  0  0  0  0
   19.2862   20.4099   21.3048 C   0  0  0  0  0  0  0  0  0  0  0  0
   20.0896   20.7531   20.6387 H   0  0  0  0  0  0  0  0  0  0  0  0
   18.3479   20.6998   20.8124 H   0  0  0  0  0  0  0  0  0  0  0  0
   19.3825   21.1696   22.6472 C   0  0  0  0  0  0  0  0  0  0  0  0
   18.4497   21.0433   23.2121 H   0  0  0  0  0  0  0  0  0  0  0  0
   19.4343   22.2430   22.4198 H   0  0  0  0  0  0  0  0  0  0  0  0
   20.6064   20.8057   23.5326 C   0  0  0  0  0  0  0  0  0  0  0  0
   21.5331   20.9117   22.9540 H   0  0  0  0  0  0  0  0  0  0  0  0
   20.6718   21.5526   24.3344 H   0  0  0  0  0  0  0  0  0  0  0  0
   20.5669   19.4110   24.2059 C   0  0  0  0  0  0  0  0  0  0  0  0
   21.2624   19.4368   25.0571 H   0  0  0  0  0  0  0  0  0  0  0  0
   21.0089   18.2280   23.3105 C   0  0  0  0  0  0  0  0  0  0  0  0
   22.0886   18.0831   23.4455 H   0  0  0  0  0  0  0  0  0  0  0  0
   20.5450   17.3080   23.6911 H   0  0  0  0  0  0  0  0  0  0  0  0
   20.7349   18.3368   21.7895 C   0  0  0  0  0  0  0  0  0  0  0  0
   21.5059   18.9627   21.3199 H   0  0  0  0  0  0  0  0  0  0  0  0
   20.8641   17.3370   21.3530 H   0  0  0  0  0  0  0  0  0  0  0  0
   19.2652   19.1495   24.7107 O   0  0  0  0  0  0  0  0  0  0  0  0
   18.6838   19.1913   23.9252 H   0  0  0  0  0  0  0  0  0  0  0  0
  1  2  1  0  0  0  0
  1  3  1  0  0  0  0
  1  4  1  0  0  0  0
  4  5  1  0  0  0  0
  4  6  1  0  0  0  0
  4  7  1  0  0  0  0
  7  8  1  0  0  0  0
  7  9  1  0  0  0  0
  7 10  1  0  0  0  0
 10 11  1  0  0  0  0
 10 12  1  0  0  0  0
 10 13  1  0  0  0  0
 13 14  1  0  0  0  0
 13 15  1  0  0  0  0
 15 16  1  0  0  0  0
 15 17  1  0  0  0  0
  1 18  1  0  0  0  0
 15 18  1  0  0  0  0
 18 19  1  0  0  0  0
 18 20  1  0  0  0  0
 13 21  1  0  0  0  0
 21 22  1  0  0  0  0
M  END
> <VM2 Rank>
34

> <Conf_Id>
300

> <Probability>
1.24

> <Sum Probability>
94.02

> <Delta G>
0.817

> <G>
48.179

> <E>
21.156

> <-TS>
27.023

> <U+W>
3.271

> <U>
4.573

> <W>
-1.301

> <W(PB)>
-3.281

> <W(SA)>
1.980

> <Valence>
12.697

> <Coulomb>
-10.358

> <VdW>
2.234

> <VdW6>
-10.225

> <VdW12>
12.458

> <Bond>
0.281

> <Angle>
3.786

> <Pdih>
8.630

> <Idih>
0.000

> <Tether>
0.000

$$$$
VeraChem MOL file


 22 22  0  0  0  0  0  0  0  0999 V2000     
   20.5119   19.1942   21.2212 C   0  0  0  0  0  0  0  0  0  0  0  0
   21.5259   19.3085   21.6254 H   0  0  0  0  0  0  0  0  0  0  0  0
   20.6404   18.8966   20.1715 H   0  0  0  0  0  0  0  0  0  0  0  0
   19.7459   20.5375   21.2327 C   0  0  0  0  0  0  0  0  0  0  0  0
   20.2249   21.2207   20.5180 H   0  0  0  0  0  0  0  0  0  0  0  0
   18.7282   20.3753   20.8522 H   0  0  0  0  0  0  0  0  0  0  0  0
   19.6670   21.2485   22.6026 C   0  0  0  0  0  0  0  0  0  0  0  0
   19.0191   22.1278   22.4849 H   0  0  0  0  0  0  0  0  0  0  0  0
   20.6521   21.6545   22.8667 H   0  0  0  0  0  0  0  0  0  0  0  0
   19.1042   20.3889   23.7682 C   0  0  0  0  0  0  0  0  0  0  0  0
   18.9029   21.0617   24.6118 H   0  0  0  0  0  0  0  0  0  0  0  0
   18.1303   19.9674   23.4876 H   0  0  0  0  0  0  0  0  0  0  0  0
   20.0308   19.2622   24.2899 C   0  0  0  0  0  0  0  0  0  0  0  0
   19.6930   19.0013   25.3032 H   0  0  0  0  0  0  0  0  0  0  0  0
   20.0113   17.9512   23.4670 C   0  0  0  0  0  0  0  0  0  0  0  0
   20.9615   17.4235   23.6259 H   0  0  0  0  0  0  0  0  0  0  0  0
   19.2422   17.2933   23.8919 H   0  0  0  0  0  0  0  0  0  0  0  0
   19.7470   18.0626   21.9444 C   0  0  0  0  0  0  0  0  0  0  0  0
   20.0211   17.1030   21.4852 H   0  0  0  0  0  0  0  0  0  0  0  0
   18.6692   18.1754   21.7648 H   0  0  0  0  0  0  0  0  0  0  0  0
   21.3678   19.7330   24.3809 O   0  0  0  0  0  0  0  0  0  0  0  0
   21.5973   19.9998   23.4682 H   0  0  0  0  0  0  0  0  0  0  0  0
  1  2  1  0  0  0  0
  1  3  1  0  0  0  0
  1  4  1  0  0  0  0
  4  5  1  0  0  0  0
  4  6  1  0  0  0  0
  4  7  1  0  0  0  0
  7  8  1  0  0  0  0
  7  9  1  0  0  0  0
  7 10  1  0  0  0  0
 10 11  1  0  0  0  0
 10 12  1  0  0  0  0
 10 13  1  0  0  0  0
 13 14  1  0  0  0  0
 13 15  1  0  0  0  0
 15 16  1  0  0  0  0
 15 17  1  0  0  0  0
  1 18  1  0  0  0  0
 15 18  1  0  0  0  0
 18 19  1  0  0  0  0
 18 20  1  0  0  0  0
 13 21  1  0  0  0  0
 21 22  1  0  0  0  0
M  END
> <VM2 Rank>
35

> <Conf_Id>
2549

> <Probability>
1.19

> <Sum Probability>
95.21

> <Delta G>
0.839

> <G>
48.201

> <E>
21.178

> <-TS>
27.023

> <U+W>
3.293

> <U>
4.573

> <W>
-1.279

> <W(PB)>
-3.268

> <W(SA)>
1.989

> <Valence>
12.697

> <Coulomb>
-10.358

> <VdW>
2.234

> <VdW6>
-10.225

> <VdW12>
12.458

> <Bond>
0.281

> <Angle>
3.786

> <Pdih>
8.630

> <Idih>
0.000

> <Tether>
0.000

$$$$
VeraChem MOL file


 22 22  0  0  0  0  0  0  0  0999 V2000     
   19.7106   18.9956   21.0428 C   0  0  0  0  0  0  0  0  0  0  0  0
   20.5283   19.3346   20.3921 H   0  0  0  0  0  0  0  0  0  0  0  0
   19.0125   18.4578   20.3869 H   0  0  0  0  0  0  0  0  0  0  0  0
   18.9858   20.2286   21.6307 C   0  0  0  0  0  0  0  0  0  0  0  0
   18.4944   20.7505   20.7981 H   0  0  0  0  0  0  0  0  0  0  0  0
   18.1799   19.9307   22.3135 H   0  0  0  0  0  0  0  0  0  0  0  0
   19.9532   21.2245   22.3095 C   0  0  0  0  0  0  0  0  0  0  0  0
   19.5318   22.2358   22.2278 H   0  0  0  0  0  0  0  0  0  0  0  0
   20.8987   21.2557   21.7513 H   0  0  0  0  0  0  0  0  0  0  0  0
   20.2424   20.9520   23.8070 C   0  0  0  0  0  0  0  0  0  0  0  0
   21.1099   21.5597   24.0952 H   0  0  0  0  0  0  0  0  0  0  0  0
   19.4076   21.3388   24.4072 H   0  0  0  0  0  0  0  0  0  0  0  0
   20.5185   19.4887   24.2300 C   0  0  0  0  0  0  0  0  0  0  0  0
   21.1912   19.5351   25.0985 H   0  0  0  0  0  0  0  0  0  0  0  0
   21.2049   18.6049   23.1587 C   0  0  0  0  0  0  0  0  0  0  0  0
   22.0160   19.1674   22.6785 H   0  0  0  0  0  0  0  0  0  0  0  0
   21.6929   17.7746   23.6855 H   0  0  0  0  0  0  0  0  0  0  0  0
   20.2698   17.9941   22.0785 C   0  0  0  0  0  0  0  0  0  0  0  0
   20.8372   17.2297   21.5303 H   0  0  0  0  0  0  0  0  0  0  0  0
   19.4424   17.4494   22.5514 H   0  0  0  0  0  0  0  0  0  0  0  0
   19.3009   18.8896   24.6498 O   0  0  0  0  0  0  0  0  0  0  0  0
   18.7651   18.8239   23.8340 H   0  0  0  0  0  0  0  0  0  0  0  0
  1  2  1  0  0  0  0
  1  3  1  0  0  0  0
  1  4  1  0  0  0  0
  4  5  1  0  0  0  0
  4  6  1  0  0  0  0
  4  7  1  0  0  0  0
  7  8  1  0  0  0  0
  7  9  1  0  0  0  0
  7 10  1  0  0  0  0
 10 11  1  0  0  0  0
 10 12  1  0  0  0  0
 10 13  1  0  0  0  0
 13 14  1  0  0  0  0
 13 15  1  0  0  0  0
 15 16  1  0  0  0  0
 15 17  1  0  0  0  0
  1 18  1  0  0  0  0
 15 18  1  0  0  0  0
 18 19  1  0  0  0  0
 18 20  1  0  0  0  0
 13 21  1  0  0  0  0
 21 22  1  0  0  0  0
M  END
> <VM2 Rank>
36

> <Conf_Id>
734

> <Probability>
1.12

> <Sum Probability>
96.34

> <Delta G>
0.876

> <G>
48.238

> <E>
21.216

> <-TS>
27.023

> <U+W>
3.331

> <U>
4.573

> <W>
-1.242

> <W(PB)>
-3.234

> <W(SA)>
1.992

> <Valence>
12.697

> <Coulomb>
-10.358

> <VdW>
2.234

> <VdW6>
-10.225

> <VdW12>
12.458

> <Bond>
0.281

> <Angle>
3.786

> <Pdih>
8.630

> <Idih>
0.000

> <Tether>
0.000

$$$$
VeraChem MOL file


 22 22  0  0  0  0  0  0  0  0999 V2000     
   20.1030   19.1814   20.9748 C   0  0  0  0  0  0  0  0  0  0  0  0
   21.1632   19.4439   20.8586 H   0  0  0  0  0  0  0  0  0  0  0  0
   19.7979   18.7575   20.0084 H   0  0  0  0  0  0  0  0  0  0  0  0
   19.2759   20.4670   21.2154 C   0  0  0  0  0  0  0  0  0  0  0  0
   19.7109   21.2737   20.6096 H   0  0  0  0  0  0  0  0  0  0  0  0
   18.2604   20.3153   20.8248 H   0  0  0  0  0  0  0  0  0  0  0  0
   19.1583   20.9435   22.6828 C   0  0  0  0  0  0  0  0  0  0  0  0
   18.3448   20.3978   23.1787 H   0  0  0  0  0  0  0  0  0  0  0  0
   18.8388   21.9943   22.6714 H   0  0  0  0  0  0  0  0  0  0  0  0
   20.4619   20.8272   23.5149 C   0  0  0  0  0  0  0  0  0  0  0  0
   21.3290   21.0802   22.8913 H   0  0  0  0  0  0  0  0  0  0  0  0
   20.4338   21.5883   24.3053 H   0  0  0  0  0  0  0  0  0  0  0  0
   20.6878   19.4541   24.1962 C   0  0  0  0  0  0  0  0  0  0  0  0
   21.5751   19.5536   24.8380 H   0  0  0  0  0  0  0  0  0  0  0  0
   20.9651   18.2789   23.2313 C   0  0  0  0  0  0  0  0  0  0  0  0
   21.9763   18.3909   22.8195 H   0  0  0  0  0  0  0  0  0  0  0  0
   20.9884   17.3541   23.8225 H   0  0  0  0  0  0  0  0  0  0  0  0
   19.9583   18.0963   22.0672 C   0  0  0  0  0  0  0  0  0  0  0  0
   18.9277   18.0532   22.4452 H   0  0  0  0  0  0  0  0  0  0  0  0
   20.1546   17.1193   21.6055 H   0  0  0  0  0  0  0  0  0  0  0  0
   19.5756   19.1296   25.0244 O   0  0  0  0  0  0  0  0  0  0  0  0
   19.4030   19.9165   25.5805 H   0  0  0  0  0  0  0  0  0  0  0  0
  1  2  1  0  0  0  0
  1  3  1  0  0  0  0
  1  4  1  0  0  0  0
  4  5  1  0  0  0  0
  4  6  1  0  0  0  0
  4  7  1  0  0  0  0
  7  8  1  0  0  0  0
  7  9  1  0  0  0  0
  7 10  1  0  0  0  0
 10 11  1  0  0  0  0
 10 12  1  0  0  0  0
 10 13  1  0  0  0  0
 13 14  1  0  0  0  0
 13 15  1  0  0  0  0
 15 16  1  0  0  0  0
 15 17  1  0  0  0  0
  1 18  1  0  0  0  0
 15 18  1  0  0  0  0
 18 19  1  0  0  0  0
 18 20  1  0  0  0  0
 13 21  1  0  0  0  0
 21 22  1  0  0  0  0
M  END
> <VM2 Rank>
37

> <Conf_Id>
1626

> <Probability>
0.52

> <Sum Probability>
96.85

> <Delta G>
1.337

> <G>
48.699

> <E>
21.997

> <-TS>
26.702

> <U+W>
4.112

> <U>
6.374

> <W>
-2.262

> <W(PB)>
-4.261

> <W(SA)>
1.999

> <Valence>
12.093

> <Coulomb>
-8.058

> <VdW>
2.339

> <VdW6>
-9.683

> <VdW12>
12.022

> <Bond>
0.268

> <Angle>
3.005

> <Pdih>
8.820

> <Idih>
0.000

> <Tether>
0.000

$$$$
VeraChem MOL file


 22 22  0  0  0  0  0  0  0  0999 V2000     
   20.1138   19.0858   20.8887 C   0  0  0  0  0  0  0  0  0  0  0  0
   19.4124   18.5032   20.2760 H   0  0  0  0  0  0  0  0  0  0  0  0
   20.9782   19.2879   20.2415 H   0  0  0  0  0  0  0  0  0  0  0  0
   19.4368   20.4282   21.2550 C   0  0  0  0  0  0  0  0  0  0  0  0
   19.4959   21.0883   20.3789 H   0  0  0  0  0  0  0  0  0  0  0  0
   18.3645   20.2633   21.4264 H   0  0  0  0  0  0  0  0  0  0  0  0
   20.0467   21.1572   22.4750 C   0  0  0  0  0  0  0  0  0  0  0  0
   19.8578   22.2329   22.3590 H   0  0  0  0  0  0  0  0  0  0  0  0
   21.1387   21.0403   22.4979 H   0  0  0  0  0  0  0  0  0  0  0  0
   19.4162   20.7096   23.8182 C   0  0  0  0  0  0  0  0  0  0  0  0
   19.6965   21.4331   24.5950 H   0  0  0  0  0  0  0  0  0  0  0  0
   18.3230   20.7688   23.7411 H   0  0  0  0  0  0  0  0  0  0  0  0
   19.8041   19.2995   24.3185 C   0  0  0  0  0  0  0  0  0  0  0  0
   19.1427   19.0710   25.1667 H   0  0  0  0  0  0  0  0  0  0  0  0
   19.6271   18.1608   23.2828 C   0  0  0  0  0  0  0  0  0  0  0  0
   19.7843   17.2093   23.8069 H   0  0  0  0  0  0  0  0  0  0  0  0
   18.5877   18.1364   22.9307 H   0  0  0  0  0  0  0  0  0  0  0  0
   20.5957   18.2140   22.0728 C   0  0  0  0  0  0  0  0  0  0  0  0
   21.5865   18.5575   22.3982 H   0  0  0  0  0  0  0  0  0  0  0  0
   20.7504   17.1930   21.6986 H   0  0  0  0  0  0  0  0  0  0  0  0
   21.1456   19.3229   24.7959 O   0  0  0  0  0  0  0  0  0  0  0  0
   21.3662   18.4045   25.0530 H   0  0  0  0  0  0  0  0  0  0  0  0
  1  2  1  0  0  0  0
  1  3  1  0  0  0  0
  1  4  1  0  0  0  0
  4  5  1  0  0  0  0
  4  6  1  0  0  0  0
  4  7  1  0  0  0  0
  7  8  1  0  0  0  0
  7  9  1  0  0  0  0
  7 10  1  0  0  0  0
 10 11  1  0  0  0  0
 10 12  1  0  0  0  0
 10 13  1  0  0  0  0
 13 14  1  0  0  0  0
 13 15  1  0  0  0  0
 15 16  1  0  0  0  0
 15 17  1  0  0  0  0
  1 18  1  0  0  0  0
 15 18  1  0  0  0  0
 18 19  1  0  0  0  0
 18 20  1  0  0  0  0
 13 21  1  0  0  0  0
 21 22  1  0  0  0  0
M  END
> <VM2 Rank>
38

> <Conf_Id>
2592

> <Probability>
0.50

> <Sum Probability>
97.35

> <Delta G>
1.358

> <G>
48.721

> <E>
22.018

> <-TS>
26.703

> <U+W>
4.133

> <U>
6.374

> <W>
-2.240

> <W(PB)>
-4.239

> <W(SA)>
1.998

> <Valence>
12.093

> <Coulomb>
-8.058

> <VdW>
2.339

> <VdW6>
-9.683

> <VdW12>
12.022

> <Bond>
0.268

> <Angle>
3.005

> <Pdih>
8.820

> <Idih>
0.000

> <Tether>
0.000

$$$$
VeraChem MOL file


 22 22  0  0  0  0  0  0  0  0999 V2000     
   19.7055   18.9857   20.9388 C   0  0  0  0  0  0  0  0  0  0  0  0
   20.4349   18.7539   20.1507 H   0  0  0  0  0  0  0  0  0  0  0  0
   18.7222   18.7347   20.5180 H   0  0  0  0  0  0  0  0  0  0  0  0
   19.7590   20.5073   21.2155 C   0  0  0  0  0  0  0  0  0  0  0  0
   20.7958   20.8595   21.1284 H   0  0  0  0  0  0  0  0  0  0  0  0
   19.2073   21.0175   20.4143 H   0  0  0  0  0  0  0  0  0  0  0  0
   19.1802   20.9447   22.5812 C   0  0  0  0  0  0  0  0  0  0  0  0
   18.2993   20.3440   22.8460 H   0  0  0  0  0  0  0  0  0  0  0  0
   18.8255   21.9797   22.4855 H   0  0  0  0  0  0  0  0  0  0  0  0
   20.2330   20.9098   23.7180 C   0  0  0  0  0  0  0  0  0  0  0  0
   19.8390   21.4680   24.5775 H   0  0  0  0  0  0  0  0  0  0  0  0
   21.1288   21.4568   23.3971 H   0  0  0  0  0  0  0  0  0  0  0  0
   20.6567   19.5085   24.2140 C   0  0  0  0  0  0  0  0  0  0  0  0
   21.5233   19.6547   24.8748 H   0  0  0  0  0  0  0  0  0  0  0  0
   21.0921   18.5200   23.1032 C   0  0  0  0  0  0  0  0  0  0  0  0
   21.9169   18.9527   22.5225 H   0  0  0  0  0  0  0  0  0  0  0  0
   21.5104   17.6325   23.5953 H   0  0  0  0  0  0  0  0  0  0  0  0
   19.9586   18.0578   22.1509 C   0  0  0  0  0  0  0  0  0  0  0  0
   19.0239   17.9292   22.7124 H   0  0  0  0  0  0  0  0  0  0  0  0
   20.2058   17.0595   21.7654 H   0  0  0  0  0  0  0  0  0  0  0  0
   19.6010   18.9442   24.9854 O   0  0  0  0  0  0  0  0  0  0  0  0
   19.8887   18.0422   25.2341 H   0  0  0  0  0  0  0  0  0  0  0  0
  1  2  1  0  0  0  0
  1  3  1  0  0  0  0
  1  4  1  0  0  0  0
  4  5  1  0  0  0  0
  4  6  1  0  0  0  0
  4  7  1  0  0  0  0
  7  8  1  0  0  0  0
  7  9  1  0  0  0  0
  7 10  1  0  0  0  0
 10 11  1  0  0  0  0
 10 12  1  0  0  0  0
 10 13  1  0  0  0  0
 13 14  1  0  0  0  0
 13 15  1  0  0  0  0
 15 16  1  0  0  0  0
 15 17  1  0  0  0  0
  1 18  1  0  0  0  0
 15 18  1  0  0  0  0
 18 19  1  0  0  0  0
 18 20  1  0  0  0  0
 13 21  1  0  0  0  0
 21 22  1  0  0  0  0
M  END
> <VM2 Rank>
39

> <Conf_Id>
1352

> <Probability>
0.50

> <Sum Probability>
97.85

> <Delta G>
1.358

> <G>
48.721

> <E>
22.019

> <-TS>
26.702

> <U+W>
4.134

> <U>
6.373

> <W>
-2.240

> <W(PB)>
-4.254

> <W(SA)>
2.015

> <Valence>
12.093

> <Coulomb>
-8.058

> <VdW>
2.339

> <VdW6>
-9.683

> <VdW12>
12.022

> <Bond>
0.268

> <Angle>
3.005

> <Pdih>
8.820

> <Idih>
0.000

> <Tether>
0.000

$$$$
VeraChem MOL file


 22 22  0  0  0  0  0  0  0  0999 V2000     
   19.9737   19.1892   21.0686 C   0  0  0  0  0  0  0  0  0  0  0  0
   20.9121   19.7044   20.8237 H   0  0  0  0  0  0  0  0  0  0  0  0
   19.5884   18.7909   20.1202 H   0  0  0  0  0  0  0  0  0  0  0  0
   18.9267   20.1797   21.6282 C   0  0  0  0  0  0  0  0  0  0  0  0
   18.4365   20.6927   20.7896 H   0  0  0  0  0  0  0  0  0  0  0  0
   18.1299   19.6153   22.1315 H   0  0  0  0  0  0  0  0  0  0  0  0
   19.4780   21.2574   22.5935 C   0  0  0  0  0  0  0  0  0  0  0  0
   18.6475   21.6187   23.2148 H   0  0  0  0  0  0  0  0  0  0  0  0
   19.8034   22.1245   22.0028 H   0  0  0  0  0  0  0  0  0  0  0  0
   20.6571   20.8389   23.5112 C   0  0  0  0  0  0  0  0  0  0  0  0
   21.5904   20.8954   22.9362 H   0  0  0  0  0  0  0  0  0  0  0  0
   20.7613   21.5958   24.2994 H   0  0  0  0  0  0  0  0  0  0  0  0
   20.5775   19.4457   24.1799 C   0  0  0  0  0  0  0  0  0  0  0  0
   21.2568   19.4727   25.0441 H   0  0  0  0  0  0  0  0  0  0  0  0
   21.0843   18.3072   23.2637 C   0  0  0  0  0  0  0  0  0  0  0  0
   22.1068   18.5435   22.9424 H   0  0  0  0  0  0  0  0  0  0  0  0
   21.1666   17.3943   23.8676 H   0  0  0  0  0  0  0  0  0  0  0  0
   20.2271   17.9899   22.0135 C   0  0  0  0  0  0  0  0  0  0  0  0
   19.2664   17.5614   22.3303 H   0  0  0  0  0  0  0  0  0  0  0  0
   20.7343   17.1989   21.4448 H   0  0  0  0  0  0  0  0  0  0  0  0
   19.2616   19.1701   24.6484 O   0  0  0  0  0  0  0  0  0  0  0  0
   18.9317   20.0026   25.0418 H   0  0  0  0  0  0  0  0  0  0  0  0
  1  2  1  0  0  0  0
  1  3  1  0  0  0  0
  1  4  1  0  0  0  0
  4  5  1  0  0  0  0
  4  6  1  0  0  0  0
  4  7  1  0  0  0  0
  7  8  1  0  0  0  0
  7  9  1  0  0  0  0
  7 10  1  0  0  0  0
 10 11  1  0  0  0  0
 10 12  1  0  0  0  0
 10 13  1  0  0  0  0
 13 14  1  0  0  0  0
 13 15  1  0  0  0  0
 15 16  1  0  0  0  0
 15 17  1  0  0  0  0
  1 18  1  0  0  0  0
 15 18  1  0  0  0  0
 18 19  1  0  0  0  0
 18 20  1  0  0  0  0
 13 21  1  0  0  0  0
 21 22  1  0  0  0  0
M  END
> <VM2 Rank>
40

> <Conf_Id>
922

> <Probability>
0.23

> <Sum Probability>
98.08

> <Delta G>
1.815

> <G>
49.178

> <E>
22.505

> <-TS>
26.672

> <U+W>
4.620

> <U>
6.656

> <W>
-2.035

> <W(PB)>
-4.035

> <W(SA)>
2.000

> <Valence>
12.237

> <Coulomb>
-7.547

> <VdW>
1.965

> <VdW6>
-10.135

> <VdW12>
12.100

> <Bond>
0.261

> <Angle>
3.590

> <Pdih>
8.387

> <Idih>
0.000

> <Tether>
0.000

$$$$
VeraChem MOL file


 22 22  0  0  0  0  0  0  0  0999 V2000     
   19.2732   18.8986   21.3989 C   0  0  0  0  0  0  0  0  0  0  0  0
   18.3449   18.8194   21.9810 H   0  0  0  0  0  0  0  0  0  0  0  0
   19.0262   18.5114   20.4011 H   0  0  0  0  0  0  0  0  0  0  0  0
   19.6690   20.3881   21.2761 C   0  0  0  0  0  0  0  0  0  0  0  0
   20.7174   20.4930   20.9663 H   0  0  0  0  0  0  0  0  0  0  0  0
   19.0676   20.8320   20.4712 H   0  0  0  0  0  0  0  0  0  0  0  0
   19.3877   21.1901   22.5696 C   0  0  0  0  0  0  0  0  0  0  0  0
   18.3671   20.9807   22.9180 H   0  0  0  0  0  0  0  0  0  0  0  0
   19.4070   22.2612   22.3271 H   0  0  0  0  0  0  0  0  0  0  0  0
   20.3859   20.9421   23.7275 C   0  0  0  0  0  0  0  0  0  0  0  0
   21.3679   21.3398   23.4409 H   0  0  0  0  0  0  0  0  0  0  0  0
   20.0662   21.5364   24.5932 H   0  0  0  0  0  0  0  0  0  0  0  0
   20.5607   19.4761   24.1888 C   0  0  0  0  0  0  0  0  0  0  0  0
   21.2341   19.5037   25.0576 H   0  0  0  0  0  0  0  0  0  0  0  0
   21.2475   18.5867   23.1250 C   0  0  0  0  0  0  0  0  0  0  0  0
   22.0456   19.1697   22.6475 H   0  0  0  0  0  0  0  0  0  0  0  0
   21.7629   17.7660   23.6404 H   0  0  0  0  0  0  0  0  0  0  0  0
   20.3471   17.9727   22.0205 C   0  0  0  0  0  0  0  0  0  0  0  0
   19.8431   17.0820   22.4193 H   0  0  0  0  0  0  0  0  0  0  0  0
   21.0020   17.6065   21.2182 H   0  0  0  0  0  0  0  0  0  0  0  0
   19.3149   18.9235   24.6005 O   0  0  0  0  0  0  0  0  0  0  0  0
   19.4569   17.9590   24.6803 H   0  0  0  0  0  0  0  0  0  0  0  0
  1  2  1  0  0  0  0
  1  3  1  0  0  0  0
  1  4  1  0  0  0  0
  4  5  1  0  0  0  0
  4  6  1  0  0  0  0
  4  7  1  0  0  0  0
  7  8  1  0  0  0  0
  7  9  1  0  0  0  0
  7 10  1  0  0  0  0
 10 11  1  0  0  0  0
 10 12  1  0  0  0  0
 10 13  1  0  0  0  0
 13 14  1  0  0  0  0
 13 15  1  0  0  0  0
 15 16  1  0  0  0  0
 15 17  1  0  0  0  0
  1 18  1  0  0  0  0
 15 18  1  0  0  0  0
 18 19  1  0  0  0  0
 18 20  1  0  0  0  0
 13 21  1  0  0  0  0
 21 22  1  0  0  0  0
M  END
> <VM2 Rank>
41

> <Conf_Id>
835

> <Probability>
0.22

> <Sum Probability>
98.30

> <Delta G>
1.845

> <G>
49.207

> <E>
22.533

> <-TS>
26.674

> <U+W>
4.648

> <U>
6.656

> <W>
-2.008

> <W(PB)>
-3.998

> <W(SA)>
1.991

> <Valence>
12.237

> <Coulomb>
-7.547

> <VdW>
1.965

> <VdW6>
-10.135

> <VdW12>
12.100

> <Bond>
0.261

> <Angle>
3.589

> <Pdih>
8.387

> <Idih>
0.000

> <Tether>
0.000

$$$$
VeraChem MOL file


 22 22  0  0  0  0  0  0  0  0999 V2000     
   20.5432   19.1815   21.2129 C   0  0  0  0  0  0  0  0  0  0  0  0
   21.5403   19.5312   21.5131 H   0  0  0  0  0  0  0  0  0  0  0  0
   20.6455   18.8721   20.1640 H   0  0  0  0  0  0  0  0  0  0  0  0
   19.5467   20.3609   21.2940 C   0  0  0  0  0  0  0  0  0  0  0  0
   19.6636   20.9647   20.3839 H   0  0  0  0  0  0  0  0  0  0  0  0
   18.5091   20.0011   21.2897 H   0  0  0  0  0  0  0  0  0  0  0  0
   19.8108   21.2844   22.5077 C   0  0  0  0  0  0  0  0  0  0  0  0
   19.2823   22.2334   22.3453 H   0  0  0  0  0  0  0  0  0  0  0  0
   20.8784   21.5401   22.5502 H   0  0  0  0  0  0  0  0  0  0  0  0
   19.3649   20.7147   23.8770 C   0  0  0  0  0  0  0  0  0  0  0  0
   19.6316   21.4396   24.6568 H   0  0  0  0  0  0  0  0  0  0  0  0
   18.2694   20.6497   23.8946 H   0  0  0  0  0  0  0  0  0  0  0  0
   19.9491   19.3399   24.2784 C   0  0  0  0  0  0  0  0  0  0  0  0
   19.5911   19.1377   25.2982 H   0  0  0  0  0  0  0  0  0  0  0  0
   19.4325   18.1824   23.3908 C   0  0  0  0  0  0  0  0  0  0  0  0
   19.4678   17.2547   23.9765 H   0  0  0  0  0  0  0  0  0  0  0  0
   18.3673   18.3504   23.1861 H   0  0  0  0  0  0  0  0  0  0  0  0
   20.1668   17.9325   22.0469 C   0  0  0  0  0  0  0  0  0  0  0  0
   21.0835   17.3583   22.2377 H   0  0  0  0  0  0  0  0  0  0  0  0
   19.5317   17.2790   21.4335 H   0  0  0  0  0  0  0  0  0  0  0  0
   21.3720   19.3817   24.2993 O   0  0  0  0  0  0  0  0  0  0  0  0
   21.6718   18.4524   24.3561 H   0  0  0  0  0  0  0  0  0  0  0  0
  1  2  1  0  0  0  0
  1  3  1  0  0  0  0
  1  4  1  0  0  0  0
  4  5  1  0  0  0  0
  4  6  1  0  0  0  0
  4  7  1  0  0  0  0
  7  8  1  0  0  0  0
  7  9  1  0  0  0  0
  7 10  1  0  0  0  0
 10 11  1  0  0  0  0
 10 12  1  0  0  0  0
 10 13  1  0  0  0  0
 13 14  1  0  0  0  0
 13 15  1  0  0  0  0
 15 16  1  0  0  0  0
 15 17  1  0  0  0  0
  1 18  1  0  0  0  0
 15 18  1  0  0  0  0
 18 19  1  0  0  0  0
 18 20  1  0  0  0  0
 13 21  1  0  0  0  0
 21 22  1  0  0  0  0
M  END
> <VM2 Rank>
42

> <Conf_Id>
2292

> <Probability>
0.22

> <Sum Probability>
98.52

> <Delta G>
1.850

> <G>
49.212

> <E>
22.538

> <-TS>
26.675

> <U+W>
4.653

> <U>
6.656

> <W>
-2.003

> <W(PB)>
-4.006

> <W(SA)>
2.003

> <Valence>
12.237

> <Coulomb>
-7.546

> <VdW>
1.965

> <VdW6>
-10.135

> <VdW12>
12.100

> <Bond>
0.261

> <Angle>
3.589

> <Pdih>
8.387

> <Idih>
0.000

> <Tether>
0.000

$$$$
VeraChem MOL file


 22 22  0  0  0  0  0  0  0  0999 V2000     
   20.5013   19.2038   21.2015 C   0  0  0  0  0  0  0  0  0  0  0  0
   21.5098   19.3299   21.6192 H   0  0  0  0  0  0  0  0  0  0  0  0
   20.6374   18.9089   20.1522 H   0  0  0  0  0  0  0  0  0  0  0  0
   19.7296   20.5425   21.2213 C   0  0  0  0  0  0  0  0  0  0  0  0
   20.1978   21.2279   20.5018 H   0  0  0  0  0  0  0  0  0  0  0  0
   18.7050   20.3808   20.8598 H   0  0  0  0  0  0  0  0  0  0  0  0
   19.6859   21.2420   22.5976 C   0  0  0  0  0  0  0  0  0  0  0  0
   19.0713   22.1466   22.4964 H   0  0  0  0  0  0  0  0  0  0  0  0
   20.6915   21.5982   22.8567 H   0  0  0  0  0  0  0  0  0  0  0  0
   19.1034   20.3833   23.7530 C   0  0  0  0  0  0  0  0  0  0  0  0
   18.8869   21.0555   24.5933 H   0  0  0  0  0  0  0  0  0  0  0  0
   18.1334   19.9646   23.4556 H   0  0  0  0  0  0  0  0  0  0  0  0
   20.0188   19.2520   24.2876 C   0  0  0  0  0  0  0  0  0  0  0  0
   19.6265   18.9656   25.2741 H   0  0  0  0  0  0  0  0  0  0  0  0
   20.0530   17.9526   23.4432 C   0  0  0  0  0  0  0  0  0  0  0  0
   21.0353   17.4782   23.5706 H   0  0  0  0  0  0  0  0  0  0  0  0
   19.3324   17.2465   23.8754 H   0  0  0  0  0  0  0  0  0  0  0  0
   19.7476   18.0682   21.9289 C   0  0  0  0  0  0  0  0  0  0  0  0
   18.6661   18.1803   21.7737 H   0  0  0  0  0  0  0  0  0  0  0  0
   20.0151   17.1120   21.4590 H   0  0  0  0  0  0  0  0  0  0  0  0
   21.3463   19.7336   24.4740 O   0  0  0  0  0  0  0  0  0  0  0  0
   21.2668   20.5886   24.9432 H   0  0  0  0  0  0  0  0  0  0  0  0
  1  2  1  0  0  0  0
  1  3  1  0  0  0  0
  1  4  1  0  0  0  0
  4  5  1  0  0  0  0
  4  6  1  0  0  0  0
  4  7  1  0  0  0  0
  7  8  1  0  0  0  0
  7  9  1  0  0  0  0
  7 10  1  0  0  0  0
 10 11  1  0  0  0  0
 10 12  1  0  0  0  0
 10 13  1  0  0  0  0
 13 14  1  0  0  0  0
 13 15  1  0  0  0  0
 15 16  1  0  0  0  0
 15 17  1  0  0  0  0
  1 18  1  0  0  0  0
 15 18  1  0  0  0  0
 18 19  1  0  0  0  0
 18 20  1  0  0  0  0
 13 21  1  0  0  0  0
 21 22  1  0  0  0  0
M  END
> <VM2 Rank>
43

> <Conf_Id>
2395

> <Probability>
0.20

> <Sum Probability>
98.72

> <Delta G>
1.898

> <G>
49.260

> <E>
22.618

> <-TS>
26.642

> <U+W>
4.734

> <U>
6.897

> <W>
-2.164

> <W(PB)>
-4.145

> <W(SA)>
1.981

> <Valence>
12.367

> <Coulomb>
-7.745

> <VdW>
2.276

> <VdW6>
-9.828

> <VdW12>
12.104

> <Bond>
0.281

> <Angle>
3.460

> <Pdih>
8.626

> <Idih>
0.000

> <Tether>
0.000

$$$$
VeraChem MOL file


 22 22  0  0  0  0  0  0  0  0999 V2000     
   19.7284   19.0023   21.0224 C   0  0  0  0  0  0  0  0  0  0  0  0
   20.5652   19.3326   20.3921 H   0  0  0  0  0  0  0  0  0  0  0  0
   19.0385   18.4715   20.3524 H   0  0  0  0  0  0  0  0  0  0  0  0
   19.0010   20.2360   21.6029 C   0  0  0  0  0  0  0  0  0  0  0  0
   18.5113   20.7605   20.7712 H   0  0  0  0  0  0  0  0  0  0  0  0
   18.1988   19.9281   22.2877 H   0  0  0  0  0  0  0  0  0  0  0  0
   19.9627   21.2248   22.2986 C   0  0  0  0  0  0  0  0  0  0  0  0
   19.5517   22.2392   22.2047 H   0  0  0  0  0  0  0  0  0  0  0  0
   20.9235   21.2458   21.7670 H   0  0  0  0  0  0  0  0  0  0  0  0
   20.2000   20.9485   23.8043 C   0  0  0  0  0  0  0  0  0  0  0  0
   21.0275   21.5896   24.1343 H   0  0  0  0  0  0  0  0  0  0  0  0
   19.3236   21.2930   24.3695 H   0  0  0  0  0  0  0  0  0  0  0  0
   20.5206   19.4926   24.2291 C   0  0  0  0  0  0  0  0  0  0  0  0
   21.2306   19.5673   25.0655 H   0  0  0  0  0  0  0  0  0  0  0  0
   21.1917   18.6044   23.1500 C   0  0  0  0  0  0  0  0  0  0  0  0
   22.0002   19.1633   22.6615 H   0  0  0  0  0  0  0  0  0  0  0  0
   21.6837   17.7719   23.6693 H   0  0  0  0  0  0  0  0  0  0  0  0
   20.2434   18.0004   22.0789 C   0  0  0  0  0  0  0  0  0  0  0  0
   20.7827   17.2021   21.5515 H   0  0  0  0  0  0  0  0  0  0  0  0
   19.3885   17.5081   22.5605 H   0  0  0  0  0  0  0  0  0  0  0  0
   19.3382   18.8689   24.7207 O   0  0  0  0  0  0  0  0  0  0  0  0
   19.5728   17.9364   24.9027 H   0  0  0  0  0  0  0  0  0  0  0  0
  1  2  1  0  0  0  0
  1  3  1  0  0  0  0
  1  4  1  0  0  0  0
  4  5  1  0  0  0  0
  4  6  1  0  0  0  0
  4  7  1  0  0  0  0
  7  8  1  0  0  0  0
  7  9  1  0  0  0  0
  7 10  1  0  0  0  0
 10 11  1  0  0  0  0
 10 12  1  0  0  0  0
 10 13  1  0  0  0  0
 13 14  1  0  0  0  0
 13 15  1  0  0  0  0
 15 16  1  0  0  0  0
 15 17  1  0  0  0  0
  1 18  1  0  0  0  0
 15 18  1  0  0  0  0
 18 19  1  0  0  0  0
 18 20  1  0  0  0  0
 13 21  1  0  0  0  0
 21 22  1  0  0  0  0
M  END
> <VM2 Rank>
44

> <Conf_Id>
251

> <Probability>
0.20

> <Sum Probability>
98.92

> <Delta G>
1.906

> <G>
49.269

> <E>
22.627

> <-TS>
26.642

> <U+W>
4.742

> <U>
6.897

> <W>
-2.155

> <W(PB)>
-4.139

> <W(SA)>
1.985

> <Valence>
12.367

> <Coulomb>
-7.745

> <VdW>
2.276

> <VdW6>
-9.828

> <VdW12>
12.104

> <Bond>
0.281

> <Angle>
3.460

> <Pdih>
8.626

> <Idih>
0.000

> <Tether>
0.000

$$$$
VeraChem MOL file


 22 22  0  0  0  0  0  0  0  0999 V2000     
   19.3492   18.8809   21.3768 C   0  0  0  0  0  0  0  0  0  0  0  0
   19.0984   18.4777   20.3863 H   0  0  0  0  0  0  0  0  0  0  0  0
   18.5780   18.5082   22.0651 H   0  0  0  0  0  0  0  0  0  0  0  0
   19.3027   20.4229   21.2862 C   0  0  0  0  0  0  0  0  0  0  0  0
   20.1205   20.7776   20.6444 H   0  0  0  0  0  0  0  0  0  0  0  0
   18.3735   20.7166   20.7794 H   0  0  0  0  0  0  0  0  0  0  0  0
   19.3626   21.1514   22.6468 C   0  0  0  0  0  0  0  0  0  0  0  0
   18.4331   20.9652   23.2003 H   0  0  0  0  0  0  0  0  0  0  0  0
   19.3755   22.2319   22.4501 H   0  0  0  0  0  0  0  0  0  0  0  0
   20.5936   20.8010   23.5262 C   0  0  0  0  0  0  0  0  0  0  0  0
   21.5154   20.9124   22.9409 H   0  0  0  0  0  0  0  0  0  0  0  0
   20.6604   21.5525   24.3234 H   0  0  0  0  0  0  0  0  0  0  0  0
   20.5705   19.4066   24.2037 C   0  0  0  0  0  0  0  0  0  0  0  0
   21.3087   19.4370   25.0181 H   0  0  0  0  0  0  0  0  0  0  0  0
   20.9704   18.2097   23.3036 C   0  0  0  0  0  0  0  0  0  0  0  0
   22.0366   18.0042   23.4640 H   0  0  0  0  0  0  0  0  0  0  0  0
   20.4458   17.3131   23.6602 H   0  0  0  0  0  0  0  0  0  0  0  0
   20.7424   18.3470   21.7775 C   0  0  0  0  0  0  0  0  0  0  0  0
   21.5243   18.9814   21.3388 H   0  0  0  0  0  0  0  0  0  0  0  0
   20.8810   17.3547   21.3272 H   0  0  0  0  0  0  0  0  0  0  0  0
   19.2946   19.1586   24.7863 O   0  0  0  0  0  0  0  0  0  0  0  0
   19.0541   19.9685   25.2801 H   0  0  0  0  0  0  0  0  0  0  0  0
  1  2  1  0  0  0  0
  1  3  1  0  0  0  0
  1  4  1  0  0  0  0
  4  5  1  0  0  0  0
  4  6  1  0  0  0  0
  4  7  1  0  0  0  0
  7  8  1  0  0  0  0
  7  9  1  0  0  0  0
  7 10  1  0  0  0  0
 10 11  1  0  0  0  0
 10 12  1  0  0  0  0
 10 13  1  0  0  0  0
 13 14  1  0  0  0  0
 13 15  1  0  0  0  0
 15 16  1  0  0  0  0
 15 17  1  0  0  0  0
  1 18  1  0  0  0  0
 15 18  1  0  0  0  0
 18 19  1  0  0  0  0
 18 20  1  0  0  0  0
 13 21  1  0  0  0  0
 21 22  1  0  0  0  0
M  END
> <VM2 Rank>
45

> <Conf_Id>
2215

> <Probability>
0.19

> <Sum Probability>
99.11

> <Delta G>
1.936

> <G>
49.299

> <E>
22.657

> <-TS>
26.642

> <U+W>
4.772

> <U>
6.897

> <W>
-2.125

> <W(PB)>
-4.121

> <W(SA)>
1.996

> <Valence>
12.367

> <Coulomb>
-7.745

> <VdW>
2.276

> <VdW6>
-9.828

> <VdW12>
12.104

> <Bond>
0.281

> <Angle>
3.460

> <Pdih>
8.626

> <Idih>
0.000

> <Tether>
0.000

$$$$
VeraChem MOL file


 22 22  0  0  0  0  0  0  0  0999 V2000     
   19.7470   19.1291   21.1008 C   0  0  0  0  0  0  0  0  0  0  0  0
   18.6502   19.1187   21.1576 H   0  0  0  0  0  0  0  0  0  0  0  0
   20.0005   18.8948   20.0579 H   0  0  0  0  0  0  0  0  0  0  0  0
   20.3049   20.5346   21.4213 C   0  0  0  0  0  0  0  0  0  0  0  0
   21.3771   20.4538   21.6466 H   0  0  0  0  0  0  0  0  0  0  0  0
   20.2420   21.1583   20.5193 H   0  0  0  0  0  0  0  0  0  0  0  0
   19.5986   21.2874   22.5754 C   0  0  0  0  0  0  0  0  0  0  0  0
   18.7589   21.8616   22.1613 H   0  0  0  0  0  0  0  0  0  0  0  0
   20.2999   22.0324   22.9752 H   0  0  0  0  0  0  0  0  0  0  0  0
   19.0575   20.4292   23.7496 C   0  0  0  0  0  0  0  0  0  0  0  0
   18.8391   21.1025   24.5884 H   0  0  0  0  0  0  0  0  0  0  0  0
   18.0882   20.0026   23.4618 H   0  0  0  0  0  0  0  0  0  0  0  0
   19.9638   19.2884   24.2711 C   0  0  0  0  0  0  0  0  0  0  0  0
   19.6139   19.0476   25.2853 H   0  0  0  0  0  0  0  0  0  0  0  0
   19.8271   17.9865   23.4464 C   0  0  0  0  0  0  0  0  0  0  0  0
   20.3405   17.1793   23.9846 H   0  0  0  0  0  0  0  0  0  0  0  0
   18.7685   17.6968   23.4246 H   0  0  0  0  0  0  0  0  0  0  0  0
   20.3614   18.0247   21.9937 C   0  0  0  0  0  0  0  0  0  0  0  0
   21.4551   18.1264   22.0058 H   0  0  0  0  0  0  0  0  0  0  0  0
   20.1572   17.0499   21.5307 H   0  0  0  0  0  0  0  0  0  0  0  0
   21.3257   19.6980   24.3488 O   0  0  0  0  0  0  0  0  0  0  0  0
   21.8421   18.9032   24.5910 H   0  0  0  0  0  0  0  0  0  0  0  0
  1  2  1  0  0  0  0
  1  3  1  0  0  0  0
  1  4  1  0  0  0  0
  4  5  1  0  0  0  0
  4  6  1  0  0  0  0
  4  7  1  0  0  0  0
  7  8  1  0  0  0  0
  7  9  1  0  0  0  0
  7 10  1  0  0  0  0
 10 11  1  0  0  0  0
 10 12  1  0  0  0  0
 10 13  1  0  0  0  0
 13 14  1  0  0  0  0
 13 15  1  0  0  0  0
 15 16  1  0  0  0  0
 15 17  1  0  0  0  0
  1 18  1  0  0  0  0
 15 18  1  0  0  0  0
 18 19  1  0  0  0  0
 18 20  1  0  0  0  0
 13 21  1  0  0  0  0
 21 22  1  0  0  0  0
M  END
> <VM2 Rank>
46

> <Conf_Id>
2548

> <Probability>
0.11

> <Sum Probability>
99.23

> <Delta G>
2.244

> <G>
49.606

> <E>
22.870

> <-TS>
26.736

> <U+W>
4.986

> <U>
7.115

> <W>
-2.129

> <W(PB)>
-4.113

> <W(SA)>
1.984

> <Valence>
12.146

> <Coulomb>
-6.960

> <VdW>
1.928

> <VdW6>
-10.064

> <VdW12>
11.993

> <Bond>
0.260

> <Angle>
3.626

> <Pdih>
8.260

> <Idih>
0.000

> <Tether>
0.000

$$$$
VeraChem MOL file


 22 22  0  0  0  0  0  0  0  0999 V2000     
   19.9746   19.1877   21.0672 C   0  0  0  0  0  0  0  0  0  0  0  0
   19.5902   18.7892   20.1185 H   0  0  0  0  0  0  0  0  0  0  0  0
   20.9143   19.7015   20.8236 H   0  0  0  0  0  0  0  0  0  0  0  0
   18.9289   20.1805   21.6242 C   0  0  0  0  0  0  0  0  0  0  0  0
   18.1295   19.6180   22.1256 H   0  0  0  0  0  0  0  0  0  0  0  0
   18.4420   20.6951   20.7848 H   0  0  0  0  0  0  0  0  0  0  0  0
   19.4777   21.2562   22.5932 C   0  0  0  0  0  0  0  0  0  0  0  0
   18.6458   21.6066   23.2193 H   0  0  0  0  0  0  0  0  0  0  0  0
   19.7976   22.1290   22.0081 H   0  0  0  0  0  0  0  0  0  0  0  0
   20.6558   20.8406   23.5138 C   0  0  0  0  0  0  0  0  0  0  0  0
   21.5921   20.9044   22.9447 H   0  0  0  0  0  0  0  0  0  0  0  0
   20.7479   21.5938   24.3068 H   0  0  0  0  0  0  0  0  0  0  0  0
   20.5774   19.4463   24.1805 C   0  0  0  0  0  0  0  0  0  0  0  0
   21.2597   19.4712   25.0425 H   0  0  0  0  0  0  0  0  0  0  0  0
   21.0842   18.3101   23.2609 C   0  0  0  0  0  0  0  0  0  0  0  0
   22.1027   18.5550   22.9327 H   0  0  0  0  0  0  0  0  0  0  0  0
   21.1817   17.3958   23.8604 H   0  0  0  0  0  0  0  0  0  0  0  0
   20.2243   17.9895   22.0140 C   0  0  0  0  0  0  0  0  0  0  0  0
   19.2627   17.5622   22.3293 H   0  0  0  0  0  0  0  0  0  0  0  0
   20.7310   17.1975   21.4461 H   0  0  0  0  0  0  0  0  0  0  0  0
   19.2631   19.1671   24.6532 O   0  0  0  0  0  0  0  0  0  0  0  0
   19.2720   18.2417   24.9703 H   0  0  0  0  0  0  0  0  0  0  0  0
  1  2  1  0  0  0  0
  1  3  1  0  0  0  0
  1  4  1  0  0  0  0
  4  5  1  0  0  0  0
  4  6  1  0  0  0  0
  4  7  1  0  0  0  0
  7  8  1  0  0  0  0
  7  9  1  0  0  0  0
  7 10  1  0  0  0  0
 10 11  1  0  0  0  0
 10 12  1  0  0  0  0
 10 13  1  0  0  0  0
 13 14  1  0  0  0  0
 13 15  1  0  0  0  0
 15 16  1  0  0  0  0
 15 17  1  0  0  0  0
  1 18  1  0  0  0  0
 15 18  1  0  0  0  0
 18 19  1  0  0  0  0
 18 20  1  0  0  0  0
 13 21  1  0  0  0  0
 21 22  1  0  0  0  0
M  END
> <VM2 Rank>
47

> <Conf_Id>
279

> <Probability>
0.11

> <Sum Probability>
99.34

> <Delta G>
2.250

> <G>
49.612

> <E>
22.877

> <-TS>
26.736

> <U+W>
4.992

> <U>
7.115

> <W>
-2.123

> <W(PB)>
-4.113

> <W(SA)>
1.991

> <Valence>
12.146

> <Coulomb>
-6.960

> <VdW>
1.928

> <VdW6>
-10.064

> <VdW12>
11.993

> <Bond>
0.260

> <Angle>
3.626

> <Pdih>
8.260

> <Idih>
0.000

> <Tether>
0.000

$$$$
VeraChem MOL file


 22 22  0  0  0  0  0  0  0  0999 V2000     
   19.2749   18.9003   21.3953 C   0  0  0  0  0  0  0  0  0  0  0  0
   19.0313   18.5136   20.3964 H   0  0  0  0  0  0  0  0  0  0  0  0
   18.3454   18.8187   21.9750 H   0  0  0  0  0  0  0  0  0  0  0  0
   19.6685   20.3903   21.2755 C   0  0  0  0  0  0  0  0  0  0  0  0
   20.7172   20.4968   20.9673 H   0  0  0  0  0  0  0  0  0  0  0  0
   19.0675   20.8348   20.4706 H   0  0  0  0  0  0  0  0  0  0  0  0
   19.3848   21.1889   22.5702 C   0  0  0  0  0  0  0  0  0  0  0  0
   18.3640   20.9784   22.9170 H   0  0  0  0  0  0  0  0  0  0  0  0
   19.4031   22.2603   22.3288 H   0  0  0  0  0  0  0  0  0  0  0  0
   20.3870   20.9406   23.7239 C   0  0  0  0  0  0  0  0  0  0  0  0
   20.0798   21.5445   24.5874 H   0  0  0  0  0  0  0  0  0  0  0  0
   21.3689   21.3317   23.4276 H   0  0  0  0  0  0  0  0  0  0  0  0
   20.5613   19.4753   24.1891 C   0  0  0  0  0  0  0  0  0  0  0  0
   21.2363   19.5067   25.0565 H   0  0  0  0  0  0  0  0  0  0  0  0
   21.2476   18.5840   23.1264 C   0  0  0  0  0  0  0  0  0  0  0  0
   22.0520   19.1607   22.6524 H   0  0  0  0  0  0  0  0  0  0  0  0
   21.7513   17.7590   23.6463 H   0  0  0  0  0  0  0  0  0  0  0  0
   20.3464   17.9737   22.0203 C   0  0  0  0  0  0  0  0  0  0  0  0
   19.8365   17.0896   22.4269 H   0  0  0  0  0  0  0  0  0  0  0  0
   20.9995   17.5988   21.2209 H   0  0  0  0  0  0  0  0  0  0  0  0
   19.3156   18.9249   24.6063 O   0  0  0  0  0  0  0  0  0  0  0  0
   18.9036   19.5856   25.1984 H   0  0  0  0  0  0  0  0  0  0  0  0
  1  2  1  0  0  0  0
  1  3  1  0  0  0  0
  1  4  1  0  0  0  0
  4  5  1  0  0  0  0
  4  6  1  0  0  0  0
  4  7  1  0  0  0  0
  7  8  1  0  0  0  0
  7  9  1  0  0  0  0
  7 10  1  0  0  0  0
 10 11  1  0  0  0  0
 10 12  1  0  0  0  0
 10 13  1  0  0  0  0
 13 14  1  0  0  0  0
 13 15  1  0  0  0  0
 15 16  1  0  0  0  0
 15 17  1  0  0  0  0
  1 18  1  0  0  0  0
 15 18  1  0  0  0  0
 18 19  1  0  0  0  0
 18 20  1  0  0  0  0
 13 21  1  0  0  0  0
 21 22  1  0  0  0  0
M  END
> <VM2 Rank>
48

> <Conf_Id>
1353

> <Probability>
0.10

> <Sum Probability>
99.44

> <Delta G>
2.298

> <G>
49.661

> <E>
22.925

> <-TS>
26.736

> <U+W>
5.040

> <U>
7.115

> <W>
-2.075

> <W(PB)>
-4.071

> <W(SA)>
1.997

> <Valence>
12.146

> <Coulomb>
-6.960

> <VdW>
1.928

> <VdW6>
-10.064

> <VdW12>
11.993

> <Bond>
0.260

> <Angle>
3.626

> <Pdih>
8.260

> <Idih>
0.000

> <Tether>
0.000

$$$$
VeraChem MOL file


 22 22  0  0  0  0  0  0  0  0999 V2000     
   19.7288   19.0031   21.0206 C   0  0  0  0  0  0  0  0  0  0  0  0
   20.5663   19.3325   20.3907 H   0  0  0  0  0  0  0  0  0  0  0  0
   19.0391   18.4718   20.3509 H   0  0  0  0  0  0  0  0  0  0  0  0
   19.0013   20.2370   21.6000 C   0  0  0  0  0  0  0  0  0  0  0  0
   18.5134   20.7621   20.7677 H   0  0  0  0  0  0  0  0  0  0  0  0
   18.1977   19.9290   22.2831 H   0  0  0  0  0  0  0  0  0  0  0  0
   19.9633   21.2242   22.2972 C   0  0  0  0  0  0  0  0  0  0  0  0
   19.5546   22.2394   22.2016 H   0  0  0  0  0  0  0  0  0  0  0  0
   20.9250   21.2431   21.7670 H   0  0  0  0  0  0  0  0  0  0  0  0
   20.1981   20.9483   23.8031 C   0  0  0  0  0  0  0  0  0  0  0  0
   21.0275   21.5885   24.1306 H   0  0  0  0  0  0  0  0  0  0  0  0
   19.3231   21.3005   24.3651 H   0  0  0  0  0  0  0  0  0  0  0  0
   20.5202   19.4925   24.2295 C   0  0  0  0  0  0  0  0  0  0  0  0
   21.2332   19.5689   25.0632 H   0  0  0  0  0  0  0  0  0  0  0  0
   21.1913   18.6041   23.1505 C   0  0  0  0  0  0  0  0  0  0  0  0
   22.0046   19.1583   22.6650 H   0  0  0  0  0  0  0  0  0  0  0  0
   21.6734   17.7685   23.6739 H   0  0  0  0  0  0  0  0  0  0  0  0
   20.2424   18.0023   22.0788 C   0  0  0  0  0  0  0  0  0  0  0  0
   20.7787   17.2004   21.5538 H   0  0  0  0  0  0  0  0  0  0  0  0
   19.3875   17.5144   22.5656 H   0  0  0  0  0  0  0  0  0  0  0  0
   19.3407   18.8665   24.7274 O   0  0  0  0  0  0  0  0  0  0  0  0
   18.9851   19.4500   25.4281 H   0  0  0  0  0  0  0  0  0  0  0  0
  1  2  1  0  0  0  0
  1  3  1  0  0  0  0
  1  4  1  0  0  0  0
  4  5  1  0  0  0  0
  4  6  1  0  0  0  0
  4  7  1  0  0  0  0
  7  8  1  0  0  0  0
  7  9  1  0  0  0  0
  7 10  1  0  0  0  0
 10 11  1  0  0  0  0
 10 12  1  0  0  0  0
 10 13  1  0  0  0  0
 13 14  1  0  0  0  0
 13 15  1  0  0  0  0
 15 16  1  0  0  0  0
 15 17  1  0  0  0  0
  1 18  1  0  0  0  0
 15 18  1  0  0  0  0
 18 19  1  0  0  0  0
 18 20  1  0  0  0  0
 13 21  1  0  0  0  0
 21 22  1  0  0  0  0
M  END
> <VM2 Rank>
49

> <Conf_Id>
140

> <Probability>
0.09

> <Sum Probability>
99.53

> <Delta G>
2.378

> <G>
49.741

> <E>
23.113

> <-TS>
26.627

> <U+W>
5.228

> <U>
7.482

> <W>
-2.254

> <W(PB)>
-4.248

> <W(SA)>
1.995

> <Valence>
12.309

> <Coulomb>
-7.084

> <VdW>
2.257

> <VdW6>
-9.771

> <VdW12>
12.028

> <Bond>
0.284

> <Angle>
3.491

> <Pdih>
8.534

> <Idih>
0.000

> <Tether>
0.000

$$$$
VeraChem MOL file


 22 22  0  0  0  0  0  0  0  0999 V2000     
   19.3499   18.8814   21.3736 C   0  0  0  0  0  0  0  0  0  0  0  0
   19.1011   18.4790   20.3822 H   0  0  0  0  0  0  0  0  0  0  0  0
   18.5774   18.5083   22.0601 H   0  0  0  0  0  0  0  0  0  0  0  0
   19.3032   20.4232   21.2845 C   0  0  0  0  0  0  0  0  0  0  0  0
   20.1212   20.7792   20.6435 H   0  0  0  0  0  0  0  0  0  0  0  0
   18.3740   20.7174   20.7780 H   0  0  0  0  0  0  0  0  0  0  0  0
   19.3624   21.1493   22.6463 C   0  0  0  0  0  0  0  0  0  0  0  0
   18.4356   20.9576   23.2032 H   0  0  0  0  0  0  0  0  0  0  0  0
   19.3710   22.2304   22.4532 H   0  0  0  0  0  0  0  0  0  0  0  0
   20.5929   20.8008   23.5270 C   0  0  0  0  0  0  0  0  0  0  0  0
   21.5168   20.9179   22.9466 H   0  0  0  0  0  0  0  0  0  0  0  0
   20.6498   21.5483   24.3286 H   0  0  0  0  0  0  0  0  0  0  0  0
   20.5700   19.4062   24.2041 C   0  0  0  0  0  0  0  0  0  0  0  0
   21.3113   19.4375   25.0157 H   0  0  0  0  0  0  0  0  0  0  0  0
   20.9688   18.2093   23.3021 C   0  0  0  0  0  0  0  0  0  0  0  0
   22.0359   18.0065   23.4607 H   0  0  0  0  0  0  0  0  0  0  0  0
   20.4491   17.3081   23.6531 H   0  0  0  0  0  0  0  0  0  0  0  0
   20.7428   18.3487   21.7762 C   0  0  0  0  0  0  0  0  0  0  0  0
   20.8838   17.3575   21.3240 H   0  0  0  0  0  0  0  0  0  0  0  0
   21.5245   18.9851   21.3399 H   0  0  0  0  0  0  0  0  0  0  0  0
   19.2961   19.1591   24.7933 O   0  0  0  0  0  0  0  0  0  0  0  0
   19.3538   18.2885   25.2368 H   0  0  0  0  0  0  0  0  0  0  0  0
  1  2  1  0  0  0  0
  1  3  1  0  0  0  0
  1  4  1  0  0  0  0
  4  5  1  0  0  0  0
  4  6  1  0  0  0  0
  4  7  1  0  0  0  0
  7  8  1  0  0  0  0
  7  9  1  0  0  0  0
  7 10  1  0  0  0  0
 10 11  1  0  0  0  0
 10 12  1  0  0  0  0
 10 13  1  0  0  0  0
 13 14  1  0  0  0  0
 13 15  1  0  0  0  0
 15 16  1  0  0  0  0
 15 17  1  0  0  0  0
  1 18  1  0  0  0  0
 15 18  1  0  0  0  0
 18 19  1  0  0  0  0
 18 20  1  0  0  0  0
 13 21  1  0  0  0  0
 21 22  1  0  0  0  0
M  END
> <VM2 Rank>
50

> <Conf_Id>
172

> <Probability>
0.09

> <Sum Probability>
99.62

> <Delta G>
2.401

> <G>
49.763

> <E>
23.136

> <-TS>
26.627

> <U+W>
5.252

> <U>
7.482

> <W>
-2.231

> <W(PB)>
-4.220

> <W(SA)>
1.990

> <Valence>
12.309

> <Coulomb>
-7.084

> <VdW>
2.257

> <VdW6>
-9.770

> <VdW12>
12.028

> <Bond>
0.284

> <Angle>
3.491

> <Pdih>
8.534

> <Idih>
0.000

> <Tether>
0.000

$$$$
VeraChem MOL file


 22 22  0  0  0  0  0  0  0  0999 V2000     
   20.6679   19.2304   21.3027 C   0  0  0  0  0  0  0  0  0  0  0  0
   21.5828   19.5746   21.8010 H   0  0  0  0  0  0  0  0  0  0  0  0
   20.9958   18.8885   20.3116 H   0  0  0  0  0  0  0  0  0  0  0  0
   19.6961   20.4232   21.1156 C   0  0  0  0  0  0  0  0  0  0  0  0
   20.2127   21.1783   20.5074 H   0  0  0  0  0  0  0  0  0  0  0  0
   18.8316   20.1022   20.5186 H   0  0  0  0  0  0  0  0  0  0  0  0
   19.1927   21.1114   22.4150 C   0  0  0  0  0  0  0  0  0  0  0  0
   18.1532   20.8197   22.6141 H   0  0  0  0  0  0  0  0  0  0  0  0
   19.1533   22.1944   22.2351 H   0  0  0  0  0  0  0  0  0  0  0  0
   20.0566   20.8492   23.6769 C   0  0  0  0  0  0  0  0  0  0  0  0
   21.1035   21.0948   23.4559 H   0  0  0  0  0  0  0  0  0  0  0  0
   19.7546   21.5627   24.4543 H   0  0  0  0  0  0  0  0  0  0  0  0
   19.9441   19.4226   24.2851 C   0  0  0  0  0  0  0  0  0  0  0  0
   19.3062   19.4981   25.1775 H   0  0  0  0  0  0  0  0  0  0  0  0
   19.3119   18.3444   23.3698 C   0  0  0  0  0  0  0  0  0  0  0  0
   19.2024   17.4185   23.9496 H   0  0  0  0  0  0  0  0  0  0  0  0
   18.2858   18.6394   23.1199 H   0  0  0  0  0  0  0  0  0  0  0  0
   20.0819   18.0171   22.0637 C   0  0  0  0  0  0  0  0  0  0  0  0
   20.9017   17.3231   22.2936 H   0  0  0  0  0  0  0  0  0  0  0  0
   19.4061   17.4681   21.3939 H   0  0  0  0  0  0  0  0  0  0  0  0
   21.2349   18.9797   24.6782 O   0  0  0  0  0  0  0  0  0  0  0  0
   21.7006   18.7767   23.8419 H   0  0  0  0  0  0  0  0  0  0  0  0
  1  2  1  0  0  0  0
  1  3  1  0  0  0  0
  1  4  1  0  0  0  0
  4  5  1  0  0  0  0
  4  6  1  0  0  0  0
  4  7  1  0  0  0  0
  7  8  1  0  0  0  0
  7  9  1  0  0  0  0
  7 10  1  0  0  0  0
 10 11  1  0  0  0  0
 10 12  1  0  0  0  0
 10 13  1  0  0  0  0
 13 14  1  0  0  0  0
 13 15  1  0  0  0  0
 15 16  1  0  0  0  0
 15 17  1  0  0  0  0
  1 18  1  0  0  0  0
 15 18  1  0  0  0  0
 18 19  1  0  0  0  0
 18 20  1  0  0  0  0
 13 21  1  0  0  0  0
 21 22  1  0  0  0  0
M  END
> <VM2 Rank>
51

> <Conf_Id>
2533

> <Probability>
0.04

> <Sum Probability>
99.66

> <Delta G>
2.831

> <G>
50.194

> <E>
23.567

> <-TS>
26.626

> <U+W>
5.682

> <U>
7.208

> <W>
-1.526

> <W(PB)>
-3.516

> <W(SA)>
1.990

> <Valence>
13.629

> <Coulomb>
-9.916

> <VdW>
3.495

> <VdW6>
-10.513

> <VdW12>
14.008

> <Bond>
0.431

> <Angle>
3.722

> <Pdih>
9.476

> <Idih>
0.000

> <Tether>
0.000

$$$$
VeraChem MOL file


 22 22  0  0  0  0  0  0  0  0999 V2000     
   19.8875   19.2000   20.9165 C   0  0  0  0  0  0  0  0  0  0  0  0
   18.9275   19.3815   20.4144 H   0  0  0  0  0  0  0  0  0  0  0  0
   20.5826   18.8893   20.1246 H   0  0  0  0  0  0  0  0  0  0  0  0
   20.4208   20.5285   21.5103 C   0  0  0  0  0  0  0  0  0  0  0  0
   21.4294   20.3738   21.9139 H   0  0  0  0  0  0  0  0  0  0  0  0
   20.5501   21.2497   20.6918 H   0  0  0  0  0  0  0  0  0  0  0  0
   19.5192   21.1765   22.5882 C   0  0  0  0  0  0  0  0  0  0  0  0
   18.6567   21.6467   22.0966 H   0  0  0  0  0  0  0  0  0  0  0  0
   20.0771   21.9971   23.0594 H   0  0  0  0  0  0  0  0  0  0  0  0
   18.9900   20.2228   23.6912 C   0  0  0  0  0  0  0  0  0  0  0  0
   18.6196   20.8306   24.5272 H   0  0  0  0  0  0  0  0  0  0  0  0
   18.1047   19.6946   23.3174 H   0  0  0  0  0  0  0  0  0  0  0  0
   20.0027   19.1911   24.2475 C   0  0  0  0  0  0  0  0  0  0  0  0
   19.4870   18.6338   25.0427 H   0  0  0  0  0  0  0  0  0  0  0  0
   20.5395   18.1477   23.2273 C   0  0  0  0  0  0  0  0  0  0  0  0
   21.5914   18.3479   22.9853 H   0  0  0  0  0  0  0  0  0  0  0  0
   20.5432   17.1706   23.7275 H   0  0  0  0  0  0  0  0  0  0  0  0
   19.7283   18.0163   21.9112 C   0  0  0  0  0  0  0  0  0  0  0  0
   20.0372   17.0951   21.3985 H   0  0  0  0  0  0  0  0  0  0  0  0
   18.6667   17.8664   22.1471 H   0  0  0  0  0  0  0  0  0  0  0  0
   21.0979   19.8951   24.8148 O   0  0  0  0  0  0  0  0  0  0  0  0
   21.4131   20.4909   24.1055 H   0  0  0  0  0  0  0  0  0  0  0  0
  1  2  1  0  0  0  0
  1  3  1  0  0  0  0
  1  4  1  0  0  0  0
  4  5  1  0  0  0  0
  4  6  1  0  0  0  0
  4  7  1  0  0  0  0
  7  8  1  0  0  0  0
  7  9  1  0  0  0  0
  7 10  1  0  0  0  0
 10 11  1  0  0  0  0
 10 12  1  0  0  0  0
 10 13  1  0  0  0  0
 13 14  1  0  0  0  0
 13 15  1  0  0  0  0
 15 16  1  0  0  0  0
 15 17  1  0  0  0  0
  1 18  1  0  0  0  0
 15 18  1  0  0  0  0
 18 19  1  0  0  0  0
 18 20  1  0  0  0  0
 13 21  1  0  0  0  0
 21 22  1  0  0  0  0
M  END
> <VM2 Rank>
52

> <Conf_Id>
1022

> <Probability>
0.04

> <Sum Probability>
99.70

> <Delta G>
2.839

> <G>
50.201

> <E>
23.575

> <-TS>
26.626

> <U+W>
5.690

> <U>
7.208

> <W>
-1.518

> <W(PB)>
-3.531

> <W(SA)>
2.013

> <Valence>
13.629

> <Coulomb>
-9.916

> <VdW>
3.495

> <VdW6>
-10.513

> <VdW12>
14.008

> <Bond>
0.431

> <Angle>
3.722

> <Pdih>
9.476

> <Idih>
0.000

> <Tether>
0.000

$$$$
VeraChem MOL file


 22 22  0  0  0  0  0  0  0  0999 V2000     
   19.8748   19.1962   20.9182 C   0  0  0  0  0  0  0  0  0  0  0  0
   20.4521   19.8219   20.2239 H   0  0  0  0  0  0  0  0  0  0  0  0
   19.2885   18.5151   20.2864 H   0  0  0  0  0  0  0  0  0  0  0  0
   18.8740   20.0815   21.7035 C   0  0  0  0  0  0  0  0  0  0  0  0
   18.2029   20.5713   20.9849 H   0  0  0  0  0  0  0  0  0  0  0  0
   18.2204   19.4466   22.3146 H   0  0  0  0  0  0  0  0  0  0  0  0
   19.5173   21.1760   22.5884 C   0  0  0  0  0  0  0  0  0  0  0  0
   18.7355   21.6096   23.2267 H   0  0  0  0  0  0  0  0  0  0  0  0
   19.8655   21.9958   21.9455 H   0  0  0  0  0  0  0  0  0  0  0  0
   20.7030   20.7179   23.4774 C   0  0  0  0  0  0  0  0  0  0  0  0
   21.6216   20.7109   22.8787 H   0  0  0  0  0  0  0  0  0  0  0  0
   20.8767   21.4829   24.2456 H   0  0  0  0  0  0  0  0  0  0  0  0
   20.5416   19.3468   24.1803 C   0  0  0  0  0  0  0  0  0  0  0  0
   21.4379   19.1977   24.7994 H   0  0  0  0  0  0  0  0  0  0  0  0
   20.4189   18.1127   23.2424 C   0  0  0  0  0  0  0  0  0  0  0  0
   21.0434   17.3152   23.6650 H   0  0  0  0  0  0  0  0  0  0  0  0
   19.3965   17.7133   23.2593 H   0  0  0  0  0  0  0  0  0  0  0  0
   20.8539   18.3416   21.7707 C   0  0  0  0  0  0  0  0  0  0  0  0
   21.8564   18.7885   21.7490 H   0  0  0  0  0  0  0  0  0  0  0  0
   20.9690   17.3644   21.2822 H   0  0  0  0  0  0  0  0  0  0  0  0
   19.4024   19.4052   25.0262 O   0  0  0  0  0  0  0  0  0  0  0  0
   18.6697   19.6981   24.4476 H   0  0  0  0  0  0  0  0  0  0  0  0
  1  2  1  0  0  0  0
  1  3  1  0  0  0  0
  1  4  1  0  0  0  0
  4  5  1  0  0  0  0
  4  6  1  0  0  0  0
  4  7  1  0  0  0  0
  7  8  1  0  0  0  0
  7  9  1  0  0  0  0
  7 10  1  0  0  0  0
 10 11  1  0  0  0  0
 10 12  1  0  0  0  0
 10 13  1  0  0  0  0
 13 14  1  0  0  0  0
 13 15  1  0  0  0  0
 15 16  1  0  0  0  0
 15 17  1  0  0  0  0
  1 18  1  0  0  0  0
 15 18  1  0  0  0  0
 18 19  1  0  0  0  0
 18 20  1  0  0  0  0
 13 21  1  0  0  0  0
 21 22  1  0  0  0  0
M  END
> <VM2 Rank>
53

> <Conf_Id>
537

> <Probability>
0.04

> <Sum Probability>
99.74

> <Delta G>
2.851

> <G>
50.214

> <E>
23.587

> <-TS>
26.627

> <U+W>
5.703

> <U>
7.208

> <W>
-1.506

> <W(PB)>
-3.498

> <W(SA)>
1.992

> <Valence>
13.629

> <Coulomb>
-9.916

> <VdW>
3.495

> <VdW6>
-10.513

> <VdW12>
14.008

> <Bond>
0.431

> <Angle>
3.722

> <Pdih>
9.476

> <Idih>
0.000

> <Tether>
0.000

$$$$
VeraChem MOL file


 22 22  0  0  0  0  0  0  0  0999 V2000     
   19.1675   18.9415   21.5023 C   0  0  0  0  0  0  0  0  0  0  0  0
   18.7485   18.4557   20.6106 H   0  0  0  0  0  0  0  0  0  0  0  0
   18.3477   18.9515   22.2315 H   0  0  0  0  0  0  0  0  0  0  0  0
   19.5556   20.3961   21.1343 C   0  0  0  0  0  0  0  0  0  0  0  0
   20.2969   20.3844   20.3237 H   0  0  0  0  0  0  0  0  0  0  0  0
   18.6634   20.8799   20.7136 H   0  0  0  0  0  0  0  0  0  0  0  0
   20.0831   21.2829   22.2966 C   0  0  0  0  0  0  0  0  0  0  0  0
   19.6776   22.2954   22.1653 H   0  0  0  0  0  0  0  0  0  0  0  0
   21.1714   21.4010   22.2125 H   0  0  0  0  0  0  0  0  0  0  0  0
   19.7231   20.7849   23.7213 C   0  0  0  0  0  0  0  0  0  0  0  0
   19.9293   21.5964   24.4311 H   0  0  0  0  0  0  0  0  0  0  0  0
   18.6396   20.6202   23.7837 H   0  0  0  0  0  0  0  0  0  0  0  0
   20.4984   19.5294   24.2113 C   0  0  0  0  0  0  0  0  0  0  0  0
   21.2675   19.8759   24.9165 H   0  0  0  0  0  0  0  0  0  0  0  0
   21.2278   18.7134   23.1149 C   0  0  0  0  0  0  0  0  0  0  0  0
   21.9764   19.3502   22.6288 H   0  0  0  0  0  0  0  0  0  0  0  0
   21.8103   17.9208   23.6025 H   0  0  0  0  0  0  0  0  0  0  0  0
   20.3278   18.0644   22.0310 C   0  0  0  0  0  0  0  0  0  0  0  0
   20.9648   17.7683   21.1865 H   0  0  0  0  0  0  0  0  0  0  0  0
   19.9046   17.1310   22.4263 H   0  0  0  0  0  0  0  0  0  0  0  0
   19.6027   18.6653   24.8954 O   0  0  0  0  0  0  0  0  0  0  0  0
   19.0485   18.2659   24.1948 H   0  0  0  0  0  0  0  0  0  0  0  0
  1  2  1  0  0  0  0
  1  3  1  0  0  0  0
  1  4  1  0  0  0  0
  4  5  1  0  0  0  0
  4  6  1  0  0  0  0
  4  7  1  0  0  0  0
  7  8  1  0  0  0  0
  7  9  1  0  0  0  0
  7 10  1  0  0  0  0
 10 11  1  0  0  0  0
 10 12  1  0  0  0  0
 10 13  1  0  0  0  0
 13 14  1  0  0  0  0
 13 15  1  0  0  0  0
 15 16  1  0  0  0  0
 15 17  1  0  0  0  0
  1 18  1  0  0  0  0
 15 18  1  0  0  0  0
 18 19  1  0  0  0  0
 18 20  1  0  0  0  0
 13 21  1  0  0  0  0
 21 22  1  0  0  0  0
M  END
> <VM2 Rank>
54

> <Conf_Id>
614

> <Probability>
0.04

> <Sum Probability>
99.78

> <Delta G>
2.857

> <G>
50.219

> <E>
23.593

> <-TS>
26.626

> <U+W>
5.708

> <U>
7.208

> <W>
-1.500

> <W(PB)>
-3.490

> <W(SA)>
1.989

> <Valence>
13.629

> <Coulomb>
-9.916

> <VdW>
3.495

> <VdW6>
-10.513

> <VdW12>
14.008

> <Bond>
0.431

> <Angle>
3.722

> <Pdih>
9.476

> <Idih>
0.000

> <Tether>
0.000

$$$$
VeraChem MOL file


 22 22  0  0  0  0  0  0  0  0999 V2000     
   19.1755   18.9524   21.4698 C   0  0  0  0  0  0  0  0  0  0  0  0
   18.7759   18.4739   20.5655 H   0  0  0  0  0  0  0  0  0  0  0  0
   18.3352   18.9730   22.1756 H   0  0  0  0  0  0  0  0  0  0  0  0
   19.6019   20.4012   21.1181 C   0  0  0  0  0  0  0  0  0  0  0  0
   20.3913   20.3755   20.3547 H   0  0  0  0  0  0  0  0  0  0  0  0
   18.7432   20.8919   20.6398 H   0  0  0  0  0  0  0  0  0  0  0  0
   20.0658   21.2916   22.3063 C   0  0  0  0  0  0  0  0  0  0  0  0
   19.6272   22.2904   22.1775 H   0  0  0  0  0  0  0  0  0  0  0  0
   21.1513   21.4480   22.2526 H   0  0  0  0  0  0  0  0  0  0  0  0
   19.6899   20.7639   23.7166 C   0  0  0  0  0  0  0  0  0  0  0  0
   19.8471   21.5723   24.4421 H   0  0  0  0  0  0  0  0  0  0  0  0
   18.6133   20.5535   23.7528 H   0  0  0  0  0  0  0  0  0  0  0  0
   20.4997   19.5319   24.2069 C   0  0  0  0  0  0  0  0  0  0  0  0
   21.2883   19.9085   24.8743 H   0  0  0  0  0  0  0  0  0  0  0  0
   21.2135   18.7101   23.1033 C   0  0  0  0  0  0  0  0  0  0  0  0
   21.9483   19.3492   22.5989 H   0  0  0  0  0  0  0  0  0  0  0  0
   21.8109   17.9235   23.5817 H   0  0  0  0  0  0  0  0  0  0  0  0
   20.2994   18.0533   22.0377 C   0  0  0  0  0  0  0  0  0  0  0  0
   20.9305   17.7035   21.2096 H   0  0  0  0  0  0  0  0  0  0  0  0
   19.8373   17.1538   22.4666 H   0  0  0  0  0  0  0  0  0  0  0  0
   19.6403   18.6736   24.9484 O   0  0  0  0  0  0  0  0  0  0  0  0
   20.1697   17.8844   25.1840 H   0  0  0  0  0  0  0  0  0  0  0  0
  1  2  1  0  0  0  0
  1  3  1  0  0  0  0
  1  4  1  0  0  0  0
  4  5  1  0  0  0  0
  4  6  1  0  0  0  0
  4  7  1  0  0  0  0
  7  8  1  0  0  0  0
  7  9  1  0  0  0  0
  7 10  1  0  0  0  0
 10 11  1  0  0  0  0
 10 12  1  0  0  0  0
 10 13  1  0  0  0  0
 13 14  1  0  0  0  0
 13 15  1  0  0  0  0
 15 16  1  0  0  0  0
 15 17  1  0  0  0  0
  1 18  1  0  0  0  0
 15 18  1  0  0  0  0
 18 19  1  0  0  0  0
 18 20  1  0  0  0  0
 13 21  1  0  0  0  0
 21 22  1  0  0  0  0
M  END
> <VM2 Rank>
55

> <Conf_Id>
112

> <Probability>
0.02

> <Sum Probability>
99.80

> <Delta G>
3.420

> <G>
50.782

> <E>
24.515

> <-TS>
26.268

> <U+W>
6.630

> <U>
8.892

> <W>
-2.262

> <W(PB)>
-4.259

> <W(SA)>
1.996

> <Valence>
13.213

> <Coulomb>
-7.892

> <VdW>
3.571

> <VdW6>
-10.254

> <VdW12>
13.825

> <Bond>
0.437

> <Angle>
3.615

> <Pdih>
9.161

> <Idih>
0.000

> <Tether>
0.000

$$$$
VeraChem MOL file


 22 22  0  0  0  0  0  0  0  0999 V2000     
   19.9126   19.2201   20.9054 C   0  0  0  0  0  0  0  0  0  0  0  0
   20.5322   19.8615   20.2640 H   0  0  0  0  0  0  0  0  0  0  0  0
   19.3500   18.5713   20.2204 H   0  0  0  0  0  0  0  0  0  0  0  0
   18.8852   20.0934   21.6713 C   0  0  0  0  0  0  0  0  0  0  0  0
   18.2355   20.5942   20.9409 H   0  0  0  0  0  0  0  0  0  0  0  0
   18.2138   19.4512   22.2557 H   0  0  0  0  0  0  0  0  0  0  0  0
   19.4961   21.1723   22.5967 C   0  0  0  0  0  0  0  0  0  0  0  0
   18.7020   21.5529   23.2533 H   0  0  0  0  0  0  0  0  0  0  0  0
   19.8188   22.0263   21.9861 H   0  0  0  0  0  0  0  0  0  0  0  0
   20.6950   20.7139   23.4656 C   0  0  0  0  0  0  0  0  0  0  0  0
   21.6002   20.6995   22.8466 H   0  0  0  0  0  0  0  0  0  0  0  0
   20.8890   21.4829   24.2243 H   0  0  0  0  0  0  0  0  0  0  0  0
   20.5441   19.3438   24.1747 C   0  0  0  0  0  0  0  0  0  0  0  0
   21.4684   19.1866   24.7491 H   0  0  0  0  0  0  0  0  0  0  0  0
   20.3718   18.1137   23.2413 C   0  0  0  0  0  0  0  0  0  0  0  0
   20.9490   17.2870   23.6747 H   0  0  0  0  0  0  0  0  0  0  0  0
   19.3297   17.7694   23.2501 H   0  0  0  0  0  0  0  0  0  0  0  0
   20.8356   18.3187   21.7745 C   0  0  0  0  0  0  0  0  0  0  0  0
   21.8587   18.7172   21.7676 H   0  0  0  0  0  0  0  0  0  0  0  0
   20.9093   17.3357   21.2897 H   0  0  0  0  0  0  0  0  0  0  0  0
   19.4456   19.4020   25.0775 O   0  0  0  0  0  0  0  0  0  0  0  0
   19.5590   20.2205   25.6026 H   0  0  0  0  0  0  0  0  0  0  0  0
  1  2  1  0  0  0  0
  1  3  1  0  0  0  0
  1  4  1  0  0  0  0
  4  5  1  0  0  0  0
  4  6  1  0  0  0  0
  4  7  1  0  0  0  0
  7  8  1  0  0  0  0
  7  9  1  0  0  0  0
  7 10  1  0  0  0  0
 10 11  1  0  0  0  0
 10 12  1  0  0  0  0
 10 13  1  0  0  0  0
 13 14  1  0  0  0  0
 13 15  1  0  0  0  0
 15 16  1  0  0  0  0
 15 17  1  0  0  0  0
  1 18  1  0  0  0  0
 15 18  1  0  0  0  0
 18 19  1  0  0  0  0
 18 20  1  0  0  0  0
 13 21  1  0  0  0  0
 21 22  1  0  0  0  0
M  END
> <VM2 Rank>
56

> <Conf_Id>
1955

> <Probability>
0.02

> <Sum Probability>
99.81

> <Delta G>
3.422

> <G>
50.784

> <E>
24.517

> <-TS>
26.267

> <U+W>
6.632

> <U>
8.892

> <W>
-2.260

> <W(PB)>
-4.261

> <W(SA)>
2.002

> <Valence>
13.213

> <Coulomb>
-7.892

> <VdW>
3.571

> <VdW6>
-10.254

> <VdW12>
13.825

> <Bond>
0.437

> <Angle>
3.615

> <Pdih>
9.161

> <Idih>
0.000

> <Tether>
0.000

$$$$
VeraChem MOL file


 22 22  0  0  0  0  0  0  0  0999 V2000     
   19.8469   19.2012   20.9135 C   0  0  0  0  0  0  0  0  0  0  0  0
   20.4957   18.8990   20.0800 H   0  0  0  0  0  0  0  0  0  0  0  0
   18.8588   19.3823   20.4691 H   0  0  0  0  0  0  0  0  0  0  0  0
   20.4081   20.5293   21.4844 C   0  0  0  0  0  0  0  0  0  0  0  0
   21.4266   20.3710   21.8615 H   0  0  0  0  0  0  0  0  0  0  0  0
   20.5181   21.2476   20.6608 H   0  0  0  0  0  0  0  0  0  0  0  0
   19.5491   21.1875   22.5901 C   0  0  0  0  0  0  0  0  0  0  0  0
   18.7010   21.7061   22.1231 H   0  0  0  0  0  0  0  0  0  0  0  0
   20.1509   21.9680   23.0751 H   0  0  0  0  0  0  0  0  0  0  0  0
   18.9963   20.2276   23.6743 C   0  0  0  0  0  0  0  0  0  0  0  0
   18.6052   20.8292   24.5049 H   0  0  0  0  0  0  0  0  0  0  0  0
   18.1201   19.7033   23.2743 H   0  0  0  0  0  0  0  0  0  0  0  0
   19.9944   19.1865   24.2422 C   0  0  0  0  0  0  0  0  0  0  0  0
   19.4443   18.6072   24.9979 H   0  0  0  0  0  0  0  0  0  0  0  0
   20.5690   18.1701   23.2171 C   0  0  0  0  0  0  0  0  0  0  0  0
   21.6085   18.4214   22.9703 H   0  0  0  0  0  0  0  0  0  0  0  0
   20.6221   17.1934   23.7149 H   0  0  0  0  0  0  0  0  0  0  0  0
   19.7518   18.0086   21.9076 C   0  0  0  0  0  0  0  0  0  0  0  0
   18.7000   17.8135   22.1554 H   0  0  0  0  0  0  0  0  0  0  0  0
   20.0953   17.1028   21.3897 H   0  0  0  0  0  0  0  0  0  0  0  0
   21.0705   19.8672   24.8777 O   0  0  0  0  0  0  0  0  0  0  0  0
   20.6677   20.5379   25.4663 H   0  0  0  0  0  0  0  0  0  0  0  0
  1  2  1  0  0  0  0
  1  3  1  0  0  0  0
  1  4  1  0  0  0  0
  4  5  1  0  0  0  0
  4  6  1  0  0  0  0
  4  7  1  0  0  0  0
  7  8  1  0  0  0  0
  7  9  1  0  0  0  0
  7 10  1  0  0  0  0
 10 11  1  0  0  0  0
 10 12  1  0  0  0  0
 10 13  1  0  0  0  0
 13 14  1  0  0  0  0
 13 15  1  0  0  0  0
 15 16  1  0  0  0  0
 15 17  1  0  0  0  0
  1 18  1  0  0  0  0
 15 18  1  0  0  0  0
 18 19  1  0  0  0  0
 18 20  1  0  0  0  0
 13 21  1  0  0  0  0
 21 22  1  0  0  0  0
M  END
> <VM2 Rank>
57

> <Conf_Id>
2583

> <Probability>
0.02

> <Sum Probability>
99.83

> <Delta G>
3.424

> <G>
50.787

> <E>
24.519

> <-TS>
26.268

> <U+W>
6.634

> <U>
8.892

> <W>
-2.258

> <W(PB)>
-4.264

> <W(SA)>
2.005

> <Valence>
13.213

> <Coulomb>
-7.891

> <VdW>
3.571

> <VdW6>
-10.254

> <VdW12>
13.825

> <Bond>
0.437

> <Angle>
3.616

> <Pdih>
9.160

> <Idih>
0.000

> <Tether>
0.000

$$$$
VeraChem MOL file


 22 22  0  0  0  0  0  0  0  0999 V2000     
   20.6570   19.2365   21.2773 C   0  0  0  0  0  0  0  0  0  0  0  0
   21.5783   19.5949   21.7542 H   0  0  0  0  0  0  0  0  0  0  0  0
   20.9670   18.8941   20.2808 H   0  0  0  0  0  0  0  0  0  0  0  0
   19.6600   20.4125   21.1106 C   0  0  0  0  0  0  0  0  0  0  0  0
   20.1348   21.1590   20.4594 H   0  0  0  0  0  0  0  0  0  0  0  0
   18.7721   20.0652   20.5649 H   0  0  0  0  0  0  0  0  0  0  0  0
   19.2120   21.1276   22.4174 C   0  0  0  0  0  0  0  0  0  0  0  0
   18.1670   20.8748   22.6407 H   0  0  0  0  0  0  0  0  0  0  0  0
   19.2099   22.2103   22.2318 H   0  0  0  0  0  0  0  0  0  0  0  0
   20.0900   20.8408   23.6646 C   0  0  0  0  0  0  0  0  0  0  0  0
   21.1423   21.0393   23.4238 H   0  0  0  0  0  0  0  0  0  0  0  0
   19.8333   21.5697   24.4439 H   0  0  0  0  0  0  0  0  0  0  0  0
   19.9330   19.4231   24.2807 C   0  0  0  0  0  0  0  0  0  0  0  0
   19.2530   19.5177   25.1396 H   0  0  0  0  0  0  0  0  0  0  0  0
   19.3185   18.3465   23.3501 C   0  0  0  0  0  0  0  0  0  0  0  0
   19.1868   17.4199   23.9235 H   0  0  0  0  0  0  0  0  0  0  0  0
   18.3013   18.6494   23.0740 H   0  0  0  0  0  0  0  0  0  0  0  0
   20.1149   18.0179   22.0616 C   0  0  0  0  0  0  0  0  0  0  0  0
   20.9631   17.3694   22.3197 H   0  0  0  0  0  0  0  0  0  0  0  0
   19.4707   17.4240   21.3994 H   0  0  0  0  0  0  0  0  0  0  0  0
   21.2007   18.9730   24.7448 O   0  0  0  0  0  0  0  0  0  0  0  0
   21.0712   18.0573   25.0662 H   0  0  0  0  0  0  0  0  0  0  0  0
  1  2  1  0  0  0  0
  1  3  1  0  0  0  0
  1  4  1  0  0  0  0
  4  5  1  0  0  0  0
  4  6  1  0  0  0  0
  4  7  1  0  0  0  0
  7  8  1  0  0  0  0
  7  9  1  0  0  0  0
  7 10  1  0  0  0  0
 10 11  1  0  0  0  0
 10 12  1  0  0  0  0
 10 13  1  0  0  0  0
 13 14  1  0  0  0  0
 13 15  1  0  0  0  0
 15 16  1  0  0  0  0
 15 17  1  0  0  0  0
  1 18  1  0  0  0  0
 15 18  1  0  0  0  0
 18 19  1  0  0  0  0
 18 20  1  0  0  0  0
 13 21  1  0  0  0  0
 21 22  1  0  0  0  0
M  END
> <VM2 Rank>
58

> <Conf_Id>
1362

> <Probability>
0.01

> <Sum Probability>
99.84

> <Delta G>
3.469

> <G>
50.831

> <E>
24.561

> <-TS>
26.270

> <U+W>
6.676

> <U>
8.892

> <W>
-2.216

> <W(PB)>
-4.226

> <W(SA)>
2.010

> <Valence>
13.213

> <Coulomb>
-7.892

> <VdW>
3.571

> <VdW6>
-10.255

> <VdW12>
13.826

> <Bond>
0.437

> <Angle>
3.615

> <Pdih>
9.160

> <Idih>
0.000

> <Tether>
0.000

$$$$
VeraChem MOL file


 22 22  0  0  0  0  0  0  0  0999 V2000     
   19.8516   19.0887   20.8670 C   0  0  0  0  0  0  0  0  0  0  0  0
   20.4064   19.4264   19.9810 H   0  0  0  0  0  0  0  0  0  0  0  0
   19.1530   18.3200   20.5094 H   0  0  0  0  0  0  0  0  0  0  0  0
   19.0309   20.2769   21.4245 C   0  0  0  0  0  0  0  0  0  0  0  0
   18.6062   20.8282   20.5745 H   0  0  0  0  0  0  0  0  0  0  0  0
   18.1616   19.8969   21.9758 H   0  0  0  0  0  0  0  0  0  0  0  0
   19.8259   21.2704   22.3112 C   0  0  0  0  0  0  0  0  0  0  0  0
   19.1618   22.1140   22.5439 H   0  0  0  0  0  0  0  0  0  0  0  0
   20.6543   21.6974   21.7296 H   0  0  0  0  0  0  0  0  0  0  0  0
   20.3783   20.7050   23.6528 C   0  0  0  0  0  0  0  0  0  0  0  0
   21.4717   20.6276   23.6009 H   0  0  0  0  0  0  0  0  0  0  0  0
   20.1787   21.4417   24.4424 H   0  0  0  0  0  0  0  0  0  0  0  0
   19.7962   19.3394   24.0908 C   0  0  0  0  0  0  0  0  0  0  0  0
   18.7016   19.3924   24.0158 H   0  0  0  0  0  0  0  0  0  0  0  0
   20.3002   18.1270   23.2594 C   0  0  0  0  0  0  0  0  0  0  0  0
   21.0963   17.6163   23.8180 H   0  0  0  0  0  0  0  0  0  0  0  0
   19.4829   17.4002   23.1676 H   0  0  0  0  0  0  0  0  0  0  0  0
   20.8596   18.4430   21.8471 C   0  0  0  0  0  0  0  0  0  0  0  0
   21.7453   19.0856   21.9346 H   0  0  0  0  0  0  0  0  0  0  0  0
   21.2273   17.5100   21.3988 H   0  0  0  0  0  0  0  0  0  0  0  0
   20.1432   19.1275   25.4541 O   0  0  0  0  0  0  0  0  0  0  0  0
   19.7197   18.2861   25.7252 H   0  0  0  0  0  0  0  0  0  0  0  0
  1  2  1  0  0  0  0
  1  3  1  0  0  0  0
  1  4  1  0  0  0  0
  4  5  1  0  0  0  0
  4  6  1  0  0  0  0
  4  7  1  0  0  0  0
  7  8  1  0  0  0  0
  7  9  1  0  0  0  0
  7 10  1  0  0  0  0
 10 11  1  0  0  0  0
 10 12  1  0  0  0  0
 10 13  1  0  0  0  0
 13 14  1  0  0  0  0
 13 15  1  0  0  0  0
 15 16  1  0  0  0  0
 15 17  1  0  0  0  0
  1 18  1  0  0  0  0
 15 18  1  0  0  0  0
 18 19  1  0  0  0  0
 18 20  1  0  0  0  0
 13 21  1  0  0  0  0
 21 22  1  0  0  0  0
M  END
> <VM2 Rank>
59

> <Conf_Id>
2598

> <Probability>
0.01

> <Sum Probability>
99.86

> <Delta G>
3.582

> <G>
50.945

> <E>
24.130

> <-TS>
26.815

> <U+W>
6.246

> <U>
8.573

> <W>
-2.328

> <W(PB)>
-4.344

> <W(SA)>
2.016

> <Valence>
13.347

> <Coulomb>
-8.600

> <VdW>
3.826

> <VdW6>
-9.679

> <VdW12>
13.505

> <Bond>
0.433

> <Angle>
3.363

> <Pdih>
9.551

> <Idih>
0.000

> <Tether>
0.000

$$$$
VeraChem MOL file


 22 22  0  0  0  0  0  0  0  0999 V2000     
   20.0297   19.1350   20.8495 C   0  0  0  0  0  0  0  0  0  0  0  0
   19.2302   19.1246   20.0961 H   0  0  0  0  0  0  0  0  0  0  0  0
   20.9326   18.7794   20.3346 H   0  0  0  0  0  0  0  0  0  0  0  0
   20.2673   20.5953   21.3048 C   0  0  0  0  0  0  0  0  0  0  0  0
   21.2956   20.7030   21.6723 H   0  0  0  0  0  0  0  0  0  0  0  0
   20.2156   21.2427   20.4189 H   0  0  0  0  0  0  0  0  0  0  0  0
   19.2686   21.1272   22.3654 C   0  0  0  0  0  0  0  0  0  0  0  0
   18.2477   21.0797   21.9626 H   0  0  0  0  0  0  0  0  0  0  0  0
   19.4788   22.1951   22.5145 H   0  0  0  0  0  0  0  0  0  0  0  0
   19.3049   20.4280   23.7563 C   0  0  0  0  0  0  0  0  0  0  0  0
   19.2638   21.2053   24.5309 H   0  0  0  0  0  0  0  0  0  0  0  0
   18.3937   19.8331   23.8968 H   0  0  0  0  0  0  0  0  0  0  0  0
   20.5386   19.5311   24.0194 C   0  0  0  0  0  0  0  0  0  0  0  0
   21.4398   20.0996   23.7525 H   0  0  0  0  0  0  0  0  0  0  0  0
   20.5391   18.1889   23.2359 C   0  0  0  0  0  0  0  0  0  0  0  0
   21.5733   17.9418   22.9637 H   0  0  0  0  0  0  0  0  0  0  0  0
   20.2030   17.3845   23.9041 H   0  0  0  0  0  0  0  0  0  0  0  0
   19.6518   18.1311   21.9643 C   0  0  0  0  0  0  0  0  0  0  0  0
   19.7034   17.1164   21.5467 H   0  0  0  0  0  0  0  0  0  0  0  0
   18.5989   18.2725   22.2404 H   0  0  0  0  0  0  0  0  0  0  0  0
   20.5859   19.2415   25.4114 O   0  0  0  0  0  0  0  0  0  0  0  0
   21.4020   18.7201   25.5632 H   0  0  0  0  0  0  0  0  0  0  0  0
  1  2  1  0  0  0  0
  1  3  1  0  0  0  0
  1  4  1  0  0  0  0
  4  5  1  0  0  0  0
  4  6  1  0  0  0  0
  4  7  1  0  0  0  0
  7  8  1  0  0  0  0
  7  9  1  0  0  0  0
  7 10  1  0  0  0  0
 10 11  1  0  0  0  0
 10 12  1  0  0  0  0
 10 13  1  0  0  0  0
 13 14  1  0  0  0  0
 13 15  1  0  0  0  0
 15 16  1  0  0  0  0
 15 17  1  0  0  0  0
  1 18  1  0  0  0  0
 15 18  1  0  0  0  0
 18 19  1  0  0  0  0
 18 20  1  0  0  0  0
 13 21  1  0  0  0  0
 21 22  1  0  0  0  0
M  END
> <VM2 Rank>
60

> <Conf_Id>
2576

> <Probability>
0.01

> <Sum Probability>
99.87

> <Delta G>
3.604

> <G>
50.967

> <E>
24.149

> <-TS>
26.818

> <U+W>
6.264

> <U>
8.574

> <W>
-2.310

> <W(PB)>
-4.333

> <W(SA)>
2.023

> <Valence>
13.346

> <Coulomb>
-8.599

> <VdW>
3.827

> <VdW6>
-9.679

> <VdW12>
13.506

> <Bond>
0.433

> <Angle>
3.364

> <Pdih>
9.548

> <Idih>
0.000

> <Tether>
0.000

$$$$
VeraChem MOL file


 22 22  0  0  0  0  0  0  0  0999 V2000     
   19.8726   19.0995   20.8607 C   0  0  0  0  0  0  0  0  0  0  0  0
   20.4485   19.4562   19.9958 H   0  0  0  0  0  0  0  0  0  0  0  0
   19.1843   18.3375   20.4702 H   0  0  0  0  0  0  0  0  0  0  0  0
   19.0340   20.2724   21.4230 C   0  0  0  0  0  0  0  0  0  0  0  0
   18.6028   20.8223   20.5754 H   0  0  0  0  0  0  0  0  0  0  0  0
   18.1698   19.8757   21.9707 H   0  0  0  0  0  0  0  0  0  0  0  0
   19.8122   21.2725   22.3167 C   0  0  0  0  0  0  0  0  0  0  0  0
   19.1296   22.0972   22.5637 H   0  0  0  0  0  0  0  0  0  0  0  0
   20.6268   21.7259   21.7358 H   0  0  0  0  0  0  0  0  0  0  0  0
   20.3858   20.7037   23.6473 C   0  0  0  0  0  0  0  0  0  0  0  0
   21.4769   20.6130   23.5719 H   0  0  0  0  0  0  0  0  0  0  0  0
   20.2135   21.4481   24.4356 H   0  0  0  0  0  0  0  0  0  0  0  0
   19.7954   19.3445   24.0958 C   0  0  0  0  0  0  0  0  0  0  0  0
   18.7001   19.4076   24.0369 H   0  0  0  0  0  0  0  0  0  0  0  0
   20.2699   18.1245   23.2571 C   0  0  0  0  0  0  0  0  0  0  0  0
   21.0403   17.5830   23.8225 H   0  0  0  0  0  0  0  0  0  0  0  0
   19.4306   17.4253   23.1527 H   0  0  0  0  0  0  0  0  0  0  0  0
   20.8549   18.4328   21.8529 C   0  0  0  0  0  0  0  0  0  0  0  0
   21.7519   19.0571   21.9534 H   0  0  0  0  0  0  0  0  0  0  0  0
   21.2103   17.4938   21.4073 H   0  0  0  0  0  0  0  0  0  0  0  0
   20.1611   19.1281   25.4536 O   0  0  0  0  0  0  0  0  0  0  0  0
   19.7973   19.8791   25.9674 H   0  0  0  0  0  0  0  0  0  0  0  0
  1  2  1  0  0  0  0
  1  3  1  0  0  0  0
  1  4  1  0  0  0  0
  4  5  1  0  0  0  0
  4  6  1  0  0  0  0
  4  7  1  0  0  0  0
  7  8  1  0  0  0  0
  7  9  1  0  0  0  0
  7 10  1  0  0  0  0
 10 11  1  0  0  0  0
 10 12  1  0  0  0  0
 10 13  1  0  0  0  0
 13 14  1  0  0  0  0
 13 15  1  0  0  0  0
 15 16  1  0  0  0  0
 15 17  1  0  0  0  0
  1 18  1  0  0  0  0
 15 18  1  0  0  0  0
 18 19  1  0  0  0  0
 18 20  1  0  0  0  0
 13 21  1  0  0  0  0
 21 22  1  0  0  0  0
M  END
> <VM2 Rank>
61

> <Conf_Id>
2396

> <Probability>
0.01

> <Sum Probability>
99.88

> <Delta G>
3.609

> <G>
50.972

> <E>
24.167

> <-TS>
26.805

> <U+W>
6.282

> <U>
8.609

> <W>
-2.327

> <W(PB)>
-4.320

> <W(SA)>
1.992

> <Valence>
13.314

> <Coulomb>
-8.546

> <VdW>
3.841

> <VdW6>
-9.685

> <VdW12>
13.526

> <Bond>
0.434

> <Angle>
3.374

> <Pdih>
9.506

> <Idih>
0.000

> <Tether>
0.000

$$$$
VeraChem MOL file


 22 22  0  0  0  0  0  0  0  0999 V2000     
   19.3269   18.9708   21.1990 C   0  0  0  0  0  0  0  0  0  0  0  0
   19.1130   18.6044   20.1856 H   0  0  0  0  0  0  0  0  0  0  0  0
   18.4389   18.7063   21.7868 H   0  0  0  0  0  0  0  0  0  0  0  0
   19.4671   20.5111   21.1351 C   0  0  0  0  0  0  0  0  0  0  0  0
   20.0233   20.7786   20.2264 H   0  0  0  0  0  0  0  0  0  0  0  0
   18.4661   20.9474   21.0144 H   0  0  0  0  0  0  0  0  0  0  0  0
   20.1699   21.1775   22.3416 C   0  0  0  0  0  0  0  0  0  0  0  0
   20.0334   22.2646   22.2629 H   0  0  0  0  0  0  0  0  0  0  0  0
   21.2534   21.0200   22.2646 H   0  0  0  0  0  0  0  0  0  0  0  0
   19.6713   20.7155   23.7363 C   0  0  0  0  0  0  0  0  0  0  0  0
   20.2047   21.3139   24.4872 H   0  0  0  0  0  0  0  0  0  0  0  0
   18.6102   20.9752   23.8426 H   0  0  0  0  0  0  0  0  0  0  0  0
   19.8499   19.2083   24.0702 C   0  0  0  0  0  0  0  0  0  0  0  0
   18.8940   18.6918   23.9081 H   0  0  0  0  0  0  0  0  0  0  0  0
   20.9363   18.4896   23.2342 C   0  0  0  0  0  0  0  0  0  0  0  0
   21.8676   19.0678   23.2856 H   0  0  0  0  0  0  0  0  0  0  0  0
   21.1677   17.5278   23.7109 H   0  0  0  0  0  0  0  0  0  0  0  0
   20.5668   18.2170   21.7463 C   0  0  0  0  0  0  0  0  0  0  0  0
   21.4365   18.4342   21.1114 H   0  0  0  0  0  0  0  0  0  0  0  0
   20.3789   17.1405   21.6329 H   0  0  0  0  0  0  0  0  0  0  0  0
   20.1979   19.0883   25.4444 O   0  0  0  0  0  0  0  0  0  0  0  0
   19.4710   19.5013   25.9562 H   0  0  0  0  0  0  0  0  0  0  0  0
  1  2  1  0  0  0  0
  1  3  1  0  0  0  0
  1  4  1  0  0  0  0
  4  5  1  0  0  0  0
  4  6  1  0  0  0  0
  4  7  1  0  0  0  0
  7  8  1  0  0  0  0
  7  9  1  0  0  0  0
  7 10  1  0  0  0  0
 10 11  1  0  0  0  0
 10 12  1  0  0  0  0
 10 13  1  0  0  0  0
 13 14  1  0  0  0  0
 13 15  1  0  0  0  0
 15 16  1  0  0  0  0
 15 17  1  0  0  0  0
  1 18  1  0  0  0  0
 15 18  1  0  0  0  0
 18 19  1  0  0  0  0
 18 20  1  0  0  0  0
 13 21  1  0  0  0  0
 21 22  1  0  0  0  0
M  END
> <VM2 Rank>
62

> <Conf_Id>
1605

> <Probability>
0.01

> <Sum Probability>
99.89

> <Delta G>
3.616

> <G>
50.978

> <E>
24.130

> <-TS>
26.848

> <U+W>
6.246

> <U>
8.573

> <W>
-2.328

> <W(PB)>
-4.334

> <W(SA)>
2.006

> <Valence>
13.348

> <Coulomb>
-8.601

> <VdW>
3.826

> <VdW6>
-9.679

> <VdW12>
13.505

> <Bond>
0.433

> <Angle>
3.363

> <Pdih>
9.552

> <Idih>
0.000

> <Tether>
0.000

$$$$
VeraChem MOL file


 22 22  0  0  0  0  0  0  0  0999 V2000     
   20.5617   19.2854   21.0666 C   0  0  0  0  0  0  0  0  0  0  0  0
   20.7170   19.0129   20.0137 H   0  0  0  0  0  0  0  0  0  0  0  0
   21.5657   19.5037   21.4517 H   0  0  0  0  0  0  0  0  0  0  0  0
   19.6989   20.5699   21.1099 C   0  0  0  0  0  0  0  0  0  0  0  0
   20.3264   21.4211   20.8125 H   0  0  0  0  0  0  0  0  0  0  0  0
   18.9129   20.4945   20.3462 H   0  0  0  0  0  0  0  0  0  0  0  0
   19.0228   20.8859   22.4651 C   0  0  0  0  0  0  0  0  0  0  0  0
   18.1516   20.2317   22.5989 H   0  0  0  0  0  0  0  0  0  0  0  0
   18.6108   21.9030   22.4161 H   0  0  0  0  0  0  0  0  0  0  0  0
   19.9486   20.7859   23.7062 C   0  0  0  0  0  0  0  0  0  0  0  0
   20.7586   21.5203   23.6102 H   0  0  0  0  0  0  0  0  0  0  0  0
   19.3590   21.0999   24.5781 H   0  0  0  0  0  0  0  0  0  0  0  0
   20.5730   19.3919   23.9928 C   0  0  0  0  0  0  0  0  0  0  0  0
   21.6056   19.3804   23.6182 H   0  0  0  0  0  0  0  0  0  0  0  0
   19.8132   18.2041   23.3545 C   0  0  0  0  0  0  0  0  0  0  0  0
   20.1631   17.2726   23.8189 H   0  0  0  0  0  0  0  0  0  0  0  0
   18.7505   18.2760   23.6185 H   0  0  0  0  0  0  0  0  0  0  0  0
   19.9642   18.0631   21.8111 C   0  0  0  0  0  0  0  0  0  0  0  0
   20.6135   17.2002   21.6090 H   0  0  0  0  0  0  0  0  0  0  0  0
   18.9893   17.8090   21.3734 H   0  0  0  0  0  0  0  0  0  0  0  0
   20.6037   19.1917   25.4010 O   0  0  0  0  0  0  0  0  0  0  0  0
   21.1347   19.9242   25.7782 H   0  0  0  0  0  0  0  0  0  0  0  0
  1  2  1  0  0  0  0
  1  3  1  0  0  0  0
  1  4  1  0  0  0  0
  4  5  1  0  0  0  0
  4  6  1  0  0  0  0
  4  7  1  0  0  0  0
  7  8  1  0  0  0  0
  7  9  1  0  0  0  0
  7 10  1  0  0  0  0
 10 11  1  0  0  0  0
 10 12  1  0  0  0  0
 10 13  1  0  0  0  0
 13 14  1  0  0  0  0
 13 15  1  0  0  0  0
 15 16  1  0  0  0  0
 15 17  1  0  0  0  0
  1 18  1  0  0  0  0
 15 18  1  0  0  0  0
 18 19  1  0  0  0  0
 18 20  1  0  0  0  0
 13 21  1  0  0  0  0
 21 22  1  0  0  0  0
M  END
> <VM2 Rank>
63

> <Conf_Id>
2102

> <Probability>
0.01

> <Sum Probability>
99.90

> <Delta G>
3.653

> <G>
51.016

> <E>
24.167

> <-TS>
26.849

> <U+W>
6.282

> <U>
8.574

> <W>
-2.292

> <W(PB)>
-4.304

> <W(SA)>
2.012

> <Valence>
13.346

> <Coulomb>
-8.599

> <VdW>
3.827

> <VdW6>
-9.679

> <VdW12>
13.506

> <Bond>
0.433

> <Angle>
3.364

> <Pdih>
9.549

> <Idih>
0.000

> <Tether>
0.000

$$$$
VeraChem MOL file


 22 22  0  0  0  0  0  0  0  0999 V2000     
   20.0038   19.1334   20.8477 C   0  0  0  0  0  0  0  0  0  0  0  0
   19.1810   19.1329   20.1199 H   0  0  0  0  0  0  0  0  0  0  0  0
   20.8875   18.7742   20.3030 H   0  0  0  0  0  0  0  0  0  0  0  0
   20.2696   20.5884   21.3032 C   0  0  0  0  0  0  0  0  0  0  0  0
   21.3012   20.6759   21.6673 H   0  0  0  0  0  0  0  0  0  0  0  0
   20.2265   21.2377   20.4182 H   0  0  0  0  0  0  0  0  0  0  0  0
   19.2854   21.1381   22.3680 C   0  0  0  0  0  0  0  0  0  0  0  0
   18.2637   21.1232   21.9648 H   0  0  0  0  0  0  0  0  0  0  0  0
   19.5263   22.1982   22.5265 H   0  0  0  0  0  0  0  0  0  0  0  0
   19.3012   20.4258   23.7519 C   0  0  0  0  0  0  0  0  0  0  0  0
   19.2356   21.1973   24.5302 H   0  0  0  0  0  0  0  0  0  0  0  0
   18.3921   19.8224   23.8689 H   0  0  0  0  0  0  0  0  0  0  0  0
   20.5379   19.5349   24.0242 C   0  0  0  0  0  0  0  0  0  0  0  0
   21.4396   20.1102   23.7732 H   0  0  0  0  0  0  0  0  0  0  0  0
   20.5614   18.1995   23.2285 C   0  0  0  0  0  0  0  0  0  0  0  0
   21.5981   17.9827   22.9413 H   0  0  0  0  0  0  0  0  0  0  0  0
   20.2606   17.3821   23.8977 H   0  0  0  0  0  0  0  0  0  0  0  0
   19.6571   18.1256   21.9693 C   0  0  0  0  0  0  0  0  0  0  0  0
   19.7190   17.1113   21.5521 H   0  0  0  0  0  0  0  0  0  0  0  0
   18.6059   18.2497   22.2594 H   0  0  0  0  0  0  0  0  0  0  0  0
   20.5697   19.2325   25.4141 O   0  0  0  0  0  0  0  0  0  0  0  0
   20.6164   20.0887   25.8886 H   0  0  0  0  0  0  0  0  0  0  0  0
  1  2  1  0  0  0  0
  1  3  1  0  0  0  0
  1  4  1  0  0  0  0
  4  5  1  0  0  0  0
  4  6  1  0  0  0  0
  4  7  1  0  0  0  0
  7  8  1  0  0  0  0
  7  9  1  0  0  0  0
  7 10  1  0  0  0  0
 10 11  1  0  0  0  0
 10 12  1  0  0  0  0
 10 13  1  0  0  0  0
 13 14  1  0  0  0  0
 13 15  1  0  0  0  0
 15 16  1  0  0  0  0
 15 17  1  0  0  0  0
  1 18  1  0  0  0  0
 15 18  1  0  0  0  0
 18 19  1  0  0  0  0
 18 20  1  0  0  0  0
 13 21  1  0  0  0  0
 21 22  1  0  0  0  0
M  END
> <VM2 Rank>
64

> <Conf_Id>
2037

> <Probability>
0.01

> <Sum Probability>
99.91

> <Delta G>
3.677

> <G>
51.040

> <E>
24.229

> <-TS>
26.810

> <U+W>
6.345

> <U>
8.609

> <W>
-2.265

> <W(PB)>
-4.271

> <W(SA)>
2.006

> <Valence>
13.313

> <Coulomb>
-8.545

> <VdW>
3.842

> <VdW6>
-9.685

> <VdW12>
13.527

> <Bond>
0.435

> <Angle>
3.375

> <Pdih>
9.503

> <Idih>
0.000

> <Tether>
0.000

$$$$
VeraChem MOL file


 22 22  0  0  0  0  0  0  0  0999 V2000     
   20.5607   19.2919   21.0675 C   0  0  0  0  0  0  0  0  0  0  0  0
   21.5592   19.5287   21.4563 H   0  0  0  0  0  0  0  0  0  0  0  0
   20.7243   19.0208   20.0156 H   0  0  0  0  0  0  0  0  0  0  0  0
   19.6761   20.5611   21.1068 C   0  0  0  0  0  0  0  0  0  0  0  0
   20.2835   21.4168   20.7819 H   0  0  0  0  0  0  0  0  0  0  0  0
   18.8755   20.4603   20.3613 H   0  0  0  0  0  0  0  0  0  0  0  0
   19.0261   20.8914   22.4715 C   0  0  0  0  0  0  0  0  0  0  0  0
   18.1502   20.2480   22.6238 H   0  0  0  0  0  0  0  0  0  0  0  0
   18.6241   21.9125   22.4234 H   0  0  0  0  0  0  0  0  0  0  0  0
   19.9724   20.7889   23.6974 C   0  0  0  0  0  0  0  0  0  0  0  0
   20.7962   21.5040   23.5781 H   0  0  0  0  0  0  0  0  0  0  0  0
   19.4087   21.1278   24.5771 H   0  0  0  0  0  0  0  0  0  0  0  0
   20.5742   19.3869   23.9959 C   0  0  0  0  0  0  0  0  0  0  0  0
   21.6112   19.3644   23.6335 H   0  0  0  0  0  0  0  0  0  0  0  0
   19.8079   18.2061   23.3512 C   0  0  0  0  0  0  0  0  0  0  0  0
   20.1336   17.2678   23.8191 H   0  0  0  0  0  0  0  0  0  0  0  0
   18.7419   18.2940   23.5966 H   0  0  0  0  0  0  0  0  0  0  0  0
   19.9828   18.0600   21.8114 C   0  0  0  0  0  0  0  0  0  0  0  0
   20.6561   17.2127   21.6227 H   0  0  0  0  0  0  0  0  0  0  0  0
   19.0202   17.7795   21.3627 H   0  0  0  0  0  0  0  0  0  0  0  0
   20.5859   19.1917   25.4052 O   0  0  0  0  0  0  0  0  0  0  0  0
   21.0249   18.3307   25.5677 H   0  0  0  0  0  0  0  0  0  0  0  0
  1  2  1  0  0  0  0
  1  3  1  0  0  0  0
  1  4  1  0  0  0  0
  4  5  1  0  0  0  0
  4  6  1  0  0  0  0
  4  7  1  0  0  0  0
  7  8  1  0  0  0  0
  7  9  1  0  0  0  0
  7 10  1  0  0  0  0
 10 11  1  0  0  0  0
 10 12  1  0  0  0  0
 10 13  1  0  0  0  0
 13 14  1  0  0  0  0
 13 15  1  0  0  0  0
 15 16  1  0  0  0  0
 15 17  1  0  0  0  0
  1 18  1  0  0  0  0
 15 18  1  0  0  0  0
 18 19  1  0  0  0  0
 18 20  1  0  0  0  0
 13 21  1  0  0  0  0
 21 22  1  0  0  0  0
M  END
> <VM2 Rank>
65

> <Conf_Id>
1296

> <Probability>
0.01

> <Sum Probability>
99.92

> <Delta G>
3.679

> <G>
51.041

> <E>
24.192

> <-TS>
26.849

> <U+W>
6.308

> <U>
8.609

> <W>
-2.302

> <W(PB)>
-4.320

> <W(SA)>
2.019

> <Valence>
13.314

> <Coulomb>
-8.546

> <VdW>
3.841

> <VdW6>
-9.685

> <VdW12>
13.526

> <Bond>
0.435

> <Angle>
3.374

> <Pdih>
9.505

> <Idih>
0.000

> <Tether>
0.000

$$$$
VeraChem MOL file


 22 22  0  0  0  0  0  0  0  0999 V2000     
   20.1774   19.2194   20.8720 C   0  0  0  0  0  0  0  0  0  0  0  0
   21.0189   19.7260   20.3802 H   0  0  0  0  0  0  0  0  0  0  0  0
   19.7075   18.6008   20.0953 H   0  0  0  0  0  0  0  0  0  0  0  0
   19.1330   20.2706   21.3264 C   0  0  0  0  0  0  0  0  0  0  0  0
   18.7879   20.8250   20.4431 H   0  0  0  0  0  0  0  0  0  0  0  0
   18.2392   19.7630   21.7115 H   0  0  0  0  0  0  0  0  0  0  0  0
   19.6384   21.2913   22.3730 C   0  0  0  0  0  0  0  0  0  0  0  0
   18.7742   21.8641   22.7364 H   0  0  0  0  0  0  0  0  0  0  0  0
   20.2959   22.0191   21.8785 H   0  0  0  0  0  0  0  0  0  0  0  0
   20.3915   20.6955   23.5886 C   0  0  0  0  0  0  0  0  0  0  0  0
   21.4420   20.5284   23.3217 H   0  0  0  0  0  0  0  0  0  0  0  0
   20.4154   21.4593   24.3767 H   0  0  0  0  0  0  0  0  0  0  0  0
   19.7878   19.3928   24.1706 C   0  0  0  0  0  0  0  0  0  0  0  0
   18.7369   19.5876   24.4290 H   0  0  0  0  0  0  0  0  0  0  0  0
   19.8293   18.1474   23.2371 C   0  0  0  0  0  0  0  0  0  0  0  0
   20.1708   17.2795   23.8172 H   0  0  0  0  0  0  0  0  0  0  0  0
   18.8075   17.8948   22.9279 H   0  0  0  0  0  0  0  0  0  0  0  0
   20.7257   18.2743   21.9769 C   0  0  0  0  0  0  0  0  0  0  0  0
   21.7341   18.5891   22.2752 H   0  0  0  0  0  0  0  0  0  0  0  0
   20.8594   17.2761   21.5383 H   0  0  0  0  0  0  0  0  0  0  0  0
   20.5028   19.0867   25.3623 O   0  0  0  0  0  0  0  0  0  0  0  0
   20.4124   19.8630   25.9534 H   0  0  0  0  0  0  0  0  0  0  0  0
  1  2  1  0  0  0  0
  1  3  1  0  0  0  0
  1  4  1  0  0  0  0
  4  5  1  0  0  0  0
  4  6  1  0  0  0  0
  4  7  1  0  0  0  0
  7  8  1  0  0  0  0
  7  9  1  0  0  0  0
  7 10  1  0  0  0  0
 10 11  1  0  0  0  0
 10 12  1  0  0  0  0
 10 13  1  0  0  0  0
 13 14  1  0  0  0  0
 13 15  1  0  0  0  0
 15 16  1  0  0  0  0
 15 17  1  0  0  0  0
  1 18  1  0  0  0  0
 15 18  1  0  0  0  0
 18 19  1  0  0  0  0
 18 20  1  0  0  0  0
 13 21  1  0  0  0  0
 21 22  1  0  0  0  0
M  END
> <VM2 Rank>
66

> <Conf_Id>
1787

> <Probability>
0.01

> <Sum Probability>
99.93

> <Delta G>
3.726

> <G>
51.089

> <E>
24.275

> <-TS>
26.814

> <U+W>
6.390

> <U>
8.781

> <W>
-2.391

> <W(PB)>
-4.391

> <W(SA)>
2.000

> <Valence>
13.328

> <Coulomb>
-8.388

> <VdW>
3.840

> <VdW6>
-9.744

> <VdW12>
13.585

> <Bond>
0.436

> <Angle>
3.477

> <Pdih>
9.415

> <Idih>
0.000

> <Tether>
0.000

$$$$
VeraChem MOL file


 22 22  0  0  0  0  0  0  0  0999 V2000     
   19.3237   18.9778   21.2004 C   0  0  0  0  0  0  0  0  0  0  0  0
   19.1010   18.6086   20.1901 H   0  0  0  0  0  0  0  0  0  0  0  0
   18.4321   18.7349   21.7923 H   0  0  0  0  0  0  0  0  0  0  0  0
   19.4923   20.5144   21.1264 C   0  0  0  0  0  0  0  0  0  0  0  0
   20.0790   20.7655   20.2322 H   0  0  0  0  0  0  0  0  0  0  0  0
   18.5021   20.9645   20.9727 H   0  0  0  0  0  0  0  0  0  0  0  0
   20.1665   21.1812   22.3491 C   0  0  0  0  0  0  0  0  0  0  0  0
   20.0200   22.2671   22.2735 H   0  0  0  0  0  0  0  0  0  0  0  0
   21.2529   21.0363   22.2909 H   0  0  0  0  0  0  0  0  0  0  0  0
   19.6470   20.7062   23.7323 C   0  0  0  0  0  0  0  0  0  0  0  0
   20.1461   21.3154   24.4978 H   0  0  0  0  0  0  0  0  0  0  0  0
   18.5781   20.9402   23.8159 H   0  0  0  0  0  0  0  0  0  0  0  0
   19.8521   19.2034   24.0736 C   0  0  0  0  0  0  0  0  0  0  0  0
   18.9001   18.6755   23.9251 H   0  0  0  0  0  0  0  0  0  0  0  0
   20.9388   18.4933   23.2296 C   0  0  0  0  0  0  0  0  0  0  0  0
   21.8614   19.0866   23.2611 H   0  0  0  0  0  0  0  0  0  0  0  0
   21.1957   17.5376   23.7050 H   0  0  0  0  0  0  0  0  0  0  0  0
   20.5497   18.2039   21.7505 C   0  0  0  0  0  0  0  0  0  0  0  0
   20.3335   17.1308   21.6576 H   0  0  0  0  0  0  0  0  0  0  0  0
   21.4191   18.3882   21.1048 H   0  0  0  0  0  0  0  0  0  0  0  0
   20.2159   19.0978   25.4450 O   0  0  0  0  0  0  0  0  0  0  0  0
   20.2781   18.1410   25.6480 H   0  0  0  0  0  0  0  0  0  0  0  0
  1  2  1  0  0  0  0
  1  3  1  0  0  0  0
  1  4  1  0  0  0  0
  4  5  1  0  0  0  0
  4  6  1  0  0  0  0
  4  7  1  0  0  0  0
  7  8  1  0  0  0  0
  7  9  1  0  0  0  0
  7 10  1  0  0  0  0
 10 11  1  0  0  0  0
 10 12  1  0  0  0  0
 10 13  1  0  0  0  0
 13 14  1  0  0  0  0
 13 15  1  0  0  0  0
 15 16  1  0  0  0  0
 15 17  1  0  0  0  0
  1 18  1  0  0  0  0
 15 18  1  0  0  0  0
 18 19  1  0  0  0  0
 18 20  1  0  0  0  0
 13 21  1  0  0  0  0
 21 22  1  0  0  0  0
M  END
> <VM2 Rank>
67

> <Conf_Id>
1279

> <Probability>
0.01

> <Sum Probability>
99.94

> <Delta G>
3.734

> <G>
51.097

> <E>
24.247

> <-TS>
26.850

> <U+W>
6.362

> <U>
8.609

> <W>
-2.247

> <W(PB)>
-4.257

> <W(SA)>
2.010

> <Valence>
13.314

> <Coulomb>
-8.546

> <VdW>
3.841

> <VdW6>
-9.685

> <VdW12>
13.527

> <Bond>
0.435

> <Angle>
3.374

> <Pdih>
9.505

> <Idih>
0.000

> <Tether>
0.000

$$$$
VeraChem MOL file


 22 22  0  0  0  0  0  0  0  0999 V2000     
   20.4687   19.3537   21.0084 C   0  0  0  0  0  0  0  0  0  0  0  0
   21.4345   19.7972   21.2828 H   0  0  0  0  0  0  0  0  0  0  0  0
   20.5645   19.0975   19.9445 H   0  0  0  0  0  0  0  0  0  0  0  0
   19.3448   20.4097   21.1623 C   0  0  0  0  0  0  0  0  0  0  0  0
   19.5938   21.2554   20.5068 H   0  0  0  0  0  0  0  0  0  0  0  0
   18.4011   20.0015   20.7756 H   0  0  0  0  0  0  0  0  0  0  0  0
   19.1128   20.9614   22.5962 C   0  0  0  0  0  0  0  0  0  0  0  0
   18.2198   20.4999   23.0372 H   0  0  0  0  0  0  0  0  0  0  0  0
   18.8690   22.0295   22.5169 H   0  0  0  0  0  0  0  0  0  0  0  0
   20.3131   20.7962   23.5657 C   0  0  0  0  0  0  0  0  0  0  0  0
   21.2159   21.2025   23.0930 H   0  0  0  0  0  0  0  0  0  0  0  0
   20.1403   21.4373   24.4407 H   0  0  0  0  0  0  0  0  0  0  0  0
   20.5999   19.3454   24.0525 C   0  0  0  0  0  0  0  0  0  0  0  0
   21.6810   19.1655   23.9631 H   0  0  0  0  0  0  0  0  0  0  0  0
   19.8582   18.2172   23.2926 C   0  0  0  0  0  0  0  0  0  0  0  0
   20.0438   17.2632   23.8030 H   0  0  0  0  0  0  0  0  0  0  0  0
   18.7752   18.3734   23.3653 H   0  0  0  0  0  0  0  0  0  0  0  0
   20.2564   18.0452   21.8055 C   0  0  0  0  0  0  0  0  0  0  0  0
   21.1836   17.4584   21.7516 H   0  0  0  0  0  0  0  0  0  0  0  0
   19.4874   17.4399   21.3066 H   0  0  0  0  0  0  0  0  0  0  0  0
   20.2321   19.2491   25.4238 O   0  0  0  0  0  0  0  0  0  0  0  0
   20.4756   18.3471   25.7191 H   0  0  0  0  0  0  0  0  0  0  0  0
  1  2  1  0  0  0  0
  1  3  1  0  0  0  0
  1  4  1  0  0  0  0
  4  5  1  0  0  0  0
  4  6  1  0  0  0  0
  4  7  1  0  0  0  0
  7  8  1  0  0  0  0
  7  9  1  0  0  0  0
  7 10  1  0  0  0  0
 10 11  1  0  0  0  0
 10 12  1  0  0  0  0
 10 13  1  0  0  0  0
 13 14  1  0  0  0  0
 13 15  1  0  0  0  0
 15 16  1  0  0  0  0
 15 17  1  0  0  0  0
  1 18  1  0  0  0  0
 15 18  1  0  0  0  0
 18 19  1  0  0  0  0
 18 20  1  0  0  0  0
 13 21  1  0  0  0  0
 21 22  1  0  0  0  0
M  END
> <VM2 Rank>
68

> <Conf_Id>
353

> <Probability>
0.01

> <Sum Probability>
99.95

> <Delta G>
3.743

> <G>
51.106

> <E>
24.304

> <-TS>
26.802

> <U+W>
6.419

> <U>
8.780

> <W>
-2.361

> <W(PB)>
-4.377

> <W(SA)>
2.016

> <Valence>
13.327

> <Coulomb>
-8.388

> <VdW>
3.841

> <VdW6>
-9.744

> <VdW12>
13.585

> <Bond>
0.436

> <Angle>
3.477

> <Pdih>
9.415

> <Idih>
0.000

> <Tether>
0.000

$$$$
VeraChem MOL file


 22 22  0  0  0  0  0  0  0  0999 V2000     
   19.3524   19.0695   21.1306 C   0  0  0  0  0  0  0  0  0  0  0  0
   19.1755   18.7441   20.0964 H   0  0  0  0  0  0  0  0  0  0  0  0
   18.3699   19.0181   21.6173 H   0  0  0  0  0  0  0  0  0  0  0  0
   19.8496   20.5374   21.1077 C   0  0  0  0  0  0  0  0  0  0  0  0
   20.7752   20.6029   20.5199 H   0  0  0  0  0  0  0  0  0  0  0  0
   19.1056   21.1299   20.5579 H   0  0  0  0  0  0  0  0  0  0  0  0
   20.0748   21.2078   22.4914 C   0  0  0  0  0  0  0  0  0  0  0  0
   19.7575   22.2570   22.4193 H   0  0  0  0  0  0  0  0  0  0  0  0
   21.1480   21.2522   22.7178 H   0  0  0  0  0  0  0  0  0  0  0  0
   19.3238   20.5416   23.6746 C   0  0  0  0  0  0  0  0  0  0  0  0
   19.3422   21.2329   24.5279 H   0  0  0  0  0  0  0  0  0  0  0  0
   18.2622   20.4415   23.4166 H   0  0  0  0  0  0  0  0  0  0  0  0
   19.8710   19.1587   24.1346 C   0  0  0  0  0  0  0  0  0  0  0  0
   19.0144   18.4819   24.2658 H   0  0  0  0  0  0  0  0  0  0  0  0
   20.8822   18.4785   23.1780 C   0  0  0  0  0  0  0  0  0  0  0  0
   21.7496   19.1333   23.0315 H   0  0  0  0  0  0  0  0  0  0  0  0
   21.2822   17.5794   23.6645 H   0  0  0  0  0  0  0  0  0  0  0  0
   20.3136   18.0589   21.7995 C   0  0  0  0  0  0  0  0  0  0  0  0
   21.1550   17.8595   21.1220 H   0  0  0  0  0  0  0  0  0  0  0  0
   19.7825   17.1036   21.9097 H   0  0  0  0  0  0  0  0  0  0  0  0
   20.5187   19.3256   25.3908 O   0  0  0  0  0  0  0  0  0  0  0  0
   20.8020   18.4344   25.6833 H   0  0  0  0  0  0  0  0  0  0  0  0
  1  2  1  0  0  0  0
  1  3  1  0  0  0  0
  1  4  1  0  0  0  0
  4  5  1  0  0  0  0
  4  6  1  0  0  0  0
  4  7  1  0  0  0  0
  7  8  1  0  0  0  0
  7  9  1  0  0  0  0
  7 10  1  0  0  0  0
 10 11  1  0  0  0  0
 10 12  1  0  0  0  0
 10 13  1  0  0  0  0
 13 14  1  0  0  0  0
 13 15  1  0  0  0  0
 15 16  1  0  0  0  0
 15 17  1  0  0  0  0
  1 18  1  0  0  0  0
 15 18  1  0  0  0  0
 18 19  1  0  0  0  0
 18 20  1  0  0  0  0
 13 21  1  0  0  0  0
 21 22  1  0  0  0  0
M  END
> <VM2 Rank>
69

> <Conf_Id>
2048

> <Probability>
0.01

> <Sum Probability>
99.96

> <Delta G>
3.746

> <G>
51.108

> <E>
24.304

> <-TS>
26.804

> <U+W>
6.419

> <U>
8.781

> <W>
-2.362

> <W(PB)>
-4.364

> <W(SA)>
2.002

> <Valence>
13.329

> <Coulomb>
-8.386

> <VdW>
3.839

> <VdW6>
-9.745

> <VdW12>
13.584

> <Bond>
0.436

> <Angle>
3.478

> <Pdih>
9.415

> <Idih>
0.000

> <Tether>
0.000

$$$$
VeraChem MOL file


 22 22  0  0  0  0  0  0  0  0999 V2000     
   19.6458   19.0984   20.9270 C   0  0  0  0  0  0  0  0  0  0  0  0
   20.1742   18.7083   20.0464 H   0  0  0  0  0  0  0  0  0  0  0  0
   18.5904   19.1728   20.6317 H   0  0  0  0  0  0  0  0  0  0  0  0
   20.2045   20.5148   21.2167 C   0  0  0  0  0  0  0  0  0  0  0  0
   21.2853   20.4573   21.3991 H   0  0  0  0  0  0  0  0  0  0  0  0
   20.1007   21.1241   20.3086 H   0  0  0  0  0  0  0  0  0  0  0  0
   19.5230   21.2654   22.3850 C   0  0  0  0  0  0  0  0  0  0  0  0
   18.5367   21.6214   22.0579 H   0  0  0  0  0  0  0  0  0  0  0  0
   20.1121   22.1670   22.6018 H   0  0  0  0  0  0  0  0  0  0  0  0
   19.3437   20.4568   23.6941 C   0  0  0  0  0  0  0  0  0  0  0  0
   19.1437   21.1695   24.5048 H   0  0  0  0  0  0  0  0  0  0  0  0
   18.4374   19.8435   23.6234 H   0  0  0  0  0  0  0  0  0  0  0  0
   20.5462   19.5660   24.0947 C   0  0  0  0  0  0  0  0  0  0  0  0
   21.4392   20.2043   24.1602 H   0  0  0  0  0  0  0  0  0  0  0  0
   20.8695   18.3862   23.1316 C   0  0  0  0  0  0  0  0  0  0  0  0
   21.8198   18.5873   22.6217 H   0  0  0  0  0  0  0  0  0  0  0  0
   21.0552   17.4821   23.7269 H   0  0  0  0  0  0  0  0  0  0  0  0
   19.7831   18.0583   22.0734 C   0  0  0  0  0  0  0  0  0  0  0  0
   20.0124   17.0823   21.6246 H   0  0  0  0  0  0  0  0  0  0  0  0
   18.8157   17.9193   22.5732 H   0  0  0  0  0  0  0  0  0  0  0  0
   20.2701   19.0319   25.3845 O   0  0  0  0  0  0  0  0  0  0  0  0
   20.1270   19.7954   25.9818 H   0  0  0  0  0  0  0  0  0  0  0  0
  1  2  1  0  0  0  0
  1  3  1  0  0  0  0
  1  4  1  0  0  0  0
  4  5  1  0  0  0  0
  4  6  1  0  0  0  0
  4  7  1  0  0  0  0
  7  8  1  0  0  0  0
  7  9  1  0  0  0  0
  7 10  1  0  0  0  0
 10 11  1  0  0  0  0
 10 12  1  0  0  0  0
 10 13  1  0  0  0  0
 13 14  1  0  0  0  0
 13 15  1  0  0  0  0
 15 16  1  0  0  0  0
 15 17  1  0  0  0  0
  1 18  1  0  0  0  0
 15 18  1  0  0  0  0
 18 19  1  0  0  0  0
 18 20  1  0  0  0  0
 13 21  1  0  0  0  0
 21 22  1  0  0  0  0
M  END
> <VM2 Rank>
70

> <Conf_Id>
1117

> <Probability>
0.01

> <Sum Probability>
99.97

> <Delta G>
3.757

> <G>
51.119

> <E>
24.304

> <-TS>
26.816

> <U+W>
6.419

> <U>
8.781

> <W>
-2.362

> <W(PB)>
-4.380

> <W(SA)>
2.018

> <Valence>
13.329

> <Coulomb>
-8.387

> <VdW>
3.839

> <VdW6>
-9.745

> <VdW12>
13.584

> <Bond>
0.436

> <Angle>
3.478

> <Pdih>
9.415

> <Idih>
0.000

> <Tether>
0.000

$$$$
VeraChem MOL file


 22 22  0  0  0  0  0  0  0  0999 V2000     
   20.2037   19.3549   20.8952 C   0  0  0  0  0  0  0  0  0  0  0  0
   21.0680   20.0125   20.7338 H   0  0  0  0  0  0  0  0  0  0  0  0
   19.9491   18.9695   19.8984 H   0  0  0  0  0  0  0  0  0  0  0  0
   19.0109   20.1926   21.4216 C   0  0  0  0  0  0  0  0  0  0  0  0
   18.6489   20.8388   20.6103 H   0  0  0  0  0  0  0  0  0  0  0  0
   18.1692   19.5262   21.6512 H   0  0  0  0  0  0  0  0  0  0  0  0
   19.3266   21.0892   22.6519 C   0  0  0  0  0  0  0  0  0  0  0  0
   18.4556   21.1031   23.3213 H   0  0  0  0  0  0  0  0  0  0  0  0
   19.4482   22.1226   22.2998 H   0  0  0  0  0  0  0  0  0  0  0  0
   20.5969   20.7183   23.4641 C   0  0  0  0  0  0  0  0  0  0  0  0
   21.4814   20.7944   22.8203 H   0  0  0  0  0  0  0  0  0  0  0  0
   20.7510   21.4798   24.2396 H   0  0  0  0  0  0  0  0  0  0  0  0
   20.5859   19.3251   24.1354 C   0  0  0  0  0  0  0  0  0  0  0  0
   21.6196   19.0973   24.4330 H   0  0  0  0  0  0  0  0  0  0  0  0
   20.0798   18.1648   23.2489 C   0  0  0  0  0  0  0  0  0  0  0  0
   20.3686   17.2231   23.7332 H   0  0  0  0  0  0  0  0  0  0  0  0
   18.9828   18.1588   23.2433 H   0  0  0  0  0  0  0  0  0  0  0  0
   20.6131   18.1510   21.7909 C   0  0  0  0  0  0  0  0  0  0  0  0
   21.7081   18.0634   21.8009 H   0  0  0  0  0  0  0  0  0  0  0  0
   20.2469   17.2317   21.3138 H   0  0  0  0  0  0  0  0  0  0  0  0
   19.7691   19.3821   25.2990 O   0  0  0  0  0  0  0  0  0  0  0  0
   20.1101   20.1188   25.8470 H   0  0  0  0  0  0  0  0  0  0  0  0
  1  2  1  0  0  0  0
  1  3  1  0  0  0  0
  1  4  1  0  0  0  0
  4  5  1  0  0  0  0
  4  6  1  0  0  0  0
  4  7  1  0  0  0  0
  7  8  1  0  0  0  0
  7  9  1  0  0  0  0
  7 10  1  0  0  0  0
 10 11  1  0  0  0  0
 10 12  1  0  0  0  0
 10 13  1  0  0  0  0
 13 14  1  0  0  0  0
 13 15  1  0  0  0  0
 15 16  1  0  0  0  0
 15 17  1  0  0  0  0
  1 18  1  0  0  0  0
 15 18  1  0  0  0  0
 18 19  1  0  0  0  0
 18 20  1  0  0  0  0
 13 21  1  0  0  0  0
 21 22  1  0  0  0  0
M  END
> <VM2 Rank>
71

> <Conf_Id>
877

> <Probability>
0.01

> <Sum Probability>
99.98

> <Delta G>
3.852

> <G>
51.214

> <E>
24.416

> <-TS>
26.798

> <U+W>
6.531

> <U>
8.919

> <W>
-2.388

> <W(PB)>
-4.391

> <W(SA)>
2.003

> <Valence>
13.464

> <Coulomb>
-8.153

> <VdW>
3.608

> <VdW6>
-9.940

> <VdW12>
13.548

> <Bond>
0.437

> <Angle>
3.544

> <Pdih>
9.483

> <Idih>
0.000

> <Tether>
0.000

$$$$
VeraChem MOL file


 22 22  0  0  0  0  0  0  0  0999 V2000     
   20.5106   19.2743   21.0720 C   0  0  0  0  0  0  0  0  0  0  0  0
   21.4783   19.7746   21.2079 H   0  0  0  0  0  0  0  0  0  0  0  0
   20.5413   18.8675   20.0520 H   0  0  0  0  0  0  0  0  0  0  0  0
   19.3719   20.3223   21.1551 C   0  0  0  0  0  0  0  0  0  0  0  0
   19.4172   20.9613   20.2626 H   0  0  0  0  0  0  0  0  0  0  0  0
   18.4016   19.8123   21.0909 H   0  0  0  0  0  0  0  0  0  0  0  0
   19.4070   21.2394   22.4108 C   0  0  0  0  0  0  0  0  0  0  0  0
   18.3808   21.4082   22.7644 H   0  0  0  0  0  0  0  0  0  0  0  0
   19.7798   22.2255   22.1018 H   0  0  0  0  0  0  0  0  0  0  0  0
   20.2906   20.7556   23.5923 C   0  0  0  0  0  0  0  0  0  0  0  0
   21.3349   20.6747   23.2663 H   0  0  0  0  0  0  0  0  0  0  0  0
   20.2918   21.5337   24.3663 H   0  0  0  0  0  0  0  0  0  0  0  0
   19.8523   19.4308   24.2566 C   0  0  0  0  0  0  0  0  0  0  0  0
   18.9809   19.6434   24.8926 H   0  0  0  0  0  0  0  0  0  0  0  0
   19.4455   18.3012   23.2817 C   0  0  0  0  0  0  0  0  0  0  0  0
   19.3783   17.3606   23.8436 H   0  0  0  0  0  0  0  0  0  0  0  0
   18.4240   18.4880   22.9293 H   0  0  0  0  0  0  0  0  0  0  0  0
   20.3859   18.0847   22.0653 C   0  0  0  0  0  0  0  0  0  0  0  0
   20.0142   17.2129   21.5098 H   0  0  0  0  0  0  0  0  0  0  0  0
   21.3869   17.8061   22.4219 H   0  0  0  0  0  0  0  0  0  0  0  0
   20.9223   18.9698   25.0733 O   0  0  0  0  0  0  0  0  0  0  0  0
   20.6214   18.1347   25.4872 H   0  0  0  0  0  0  0  0  0  0  0  0
  1  2  1  0  0  0  0
  1  3  1  0  0  0  0
  1  4  1  0  0  0  0
  4  5  1  0  0  0  0
  4  6  1  0  0  0  0
  4  7  1  0  0  0  0
  7  8  1  0  0  0  0
  7  9  1  0  0  0  0
  7 10  1  0  0  0  0
 10 11  1  0  0  0  0
 10 12  1  0  0  0  0
 10 13  1  0  0  0  0
 13 14  1  0  0  0  0
 13 15  1  0  0  0  0
 15 16  1  0  0  0  0
 15 17  1  0  0  0  0
  1 18  1  0  0  0  0
 15 18  1  0  0  0  0
 18 19  1  0  0  0  0
 18 20  1  0  0  0  0
 13 21  1  0  0  0  0
 21 22  1  0  0  0  0
M  END
> <VM2 Rank>
72

> <Conf_Id>
2126

> <Probability>
0.01

> <Sum Probability>
99.98

> <Delta G>
3.872

> <G>
51.234

> <E>
24.437

> <-TS>
26.797

> <U+W>
6.552

> <U>
8.919

> <W>
-2.366

> <W(PB)>
-4.372

> <W(SA)>
2.005

> <Valence>
13.464

> <Coulomb>
-8.154

> <VdW>
3.608

> <VdW6>
-9.940

> <VdW12>
13.548

> <Bond>
0.437

> <Angle>
3.544

> <Pdih>
9.483

> <Idih>
0.000

> <Tether>
0.000

$$$$
VeraChem MOL file


 22 22  0  0  0  0  0  0  0  0999 V2000     
   19.5441   19.1767   20.9723 C   0  0  0  0  0  0  0  0  0  0  0  0
   19.7346   18.9118   19.9233 H   0  0  0  0  0  0  0  0  0  0  0  0
   18.4559   19.3065   21.0398 H   0  0  0  0  0  0  0  0  0  0  0  0
   20.2432   20.5257   21.2772 C   0  0  0  0  0  0  0  0  0  0  0  0
   21.3315   20.3808   21.2805 H   0  0  0  0  0  0  0  0  0  0  0  0
   20.0508   21.2179   20.4462 H   0  0  0  0  0  0  0  0  0  0  0  0
   19.7975   21.2163   22.5970 C   0  0  0  0  0  0  0  0  0  0  0  0
   19.1066   22.0308   22.3404 H   0  0  0  0  0  0  0  0  0  0  0  0
   20.6672   21.6991   23.0631 H   0  0  0  0  0  0  0  0  0  0  0  0
   19.0880   20.3111   23.6402 C   0  0  0  0  0  0  0  0  0  0  0  0
   18.7469   20.9388   24.4735 H   0  0  0  0  0  0  0  0  0  0  0  0
   18.1681   19.9004   23.2070 H   0  0  0  0  0  0  0  0  0  0  0  0
   19.9336   19.1489   24.2113 C   0  0  0  0  0  0  0  0  0  0  0  0
   19.2413   18.4547   24.7093 H   0  0  0  0  0  0  0  0  0  0  0  0
   20.7463   18.3453   23.1711 C   0  0  0  0  0  0  0  0  0  0  0  0
   21.6698   18.8860   22.9299 H   0  0  0  0  0  0  0  0  0  0  0  0
   21.0764   17.4148   23.6506 H   0  0  0  0  0  0  0  0  0  0  0  0
   19.9922   17.9831   21.8632 C   0  0  0  0  0  0  0  0  0  0  0  0
   20.6556   17.3427   21.2659 H   0  0  0  0  0  0  0  0  0  0  0  0
   19.1183   17.3623   22.1028 H   0  0  0  0  0  0  0  0  0  0  0  0
   20.8411   19.6711   25.1747 O   0  0  0  0  0  0  0  0  0  0  0  0
   20.3053   20.1706   25.8249 H   0  0  0  0  0  0  0  0  0  0  0  0
  1  2  1  0  0  0  0
  1  3  1  0  0  0  0
  1  4  1  0  0  0  0
  4  5  1  0  0  0  0
  4  6  1  0  0  0  0
  4  7  1  0  0  0  0
  7  8  1  0  0  0  0
  7  9  1  0  0  0  0
  7 10  1  0  0  0  0
 10 11  1  0  0  0  0
 10 12  1  0  0  0  0
 10 13  1  0  0  0  0
 13 14  1  0  0  0  0
 13 15  1  0  0  0  0
 15 16  1  0  0  0  0
 15 17  1  0  0  0  0
  1 18  1  0  0  0  0
 15 18  1  0  0  0  0
 18 19  1  0  0  0  0
 18 20  1  0  0  0  0
 13 21  1  0  0  0  0
 21 22  1  0  0  0  0
M  END
> <VM2 Rank>
73

> <Conf_Id>
1364

> <Probability>
0.01

> <Sum Probability>
99.99

> <Delta G>
3.881

> <G>
51.243

> <E>
24.447

> <-TS>
26.797

> <U+W>
6.562

> <U>
8.919

> <W>
-2.357

> <W(PB)>
-4.378

> <W(SA)>
2.021

> <Valence>
13.464

> <Coulomb>
-8.154

> <VdW>
3.609

> <VdW6>
-9.940

> <VdW12>
13.548

> <Bond>
0.437

> <Angle>
3.544

> <Pdih>
9.483

> <Idih>
0.000

> <Tether>
0.000

$$$$
VeraChem MOL file


 22 22  0  0  0  0  0  0  0  0999 V2000     
   19.2868   19.0359   21.2155 C   0  0  0  0  0  0  0  0  0  0  0  0
   19.1822   18.6029   20.2113 H   0  0  0  0  0  0  0  0  0  0  0  0
   18.2592   19.1475   21.5854 H   0  0  0  0  0  0  0  0  0  0  0  0
   19.9440   20.4336   21.0881 C   0  0  0  0  0  0  0  0  0  0  0  0
   20.9935   20.3169   20.7870 H   0  0  0  0  0  0  0  0  0  0  0  0
   19.4674   20.9711   20.2569 H   0  0  0  0  0  0  0  0  0  0  0  0
   19.8528   21.3260   22.3588 C   0  0  0  0  0  0  0  0  0  0  0  0
   19.0837   22.0906   22.1834 H   0  0  0  0  0  0  0  0  0  0  0  0
   20.7951   21.8768   22.4824 H   0  0  0  0  0  0  0  0  0  0  0  0
   19.4969   20.6015   23.6850 C   0  0  0  0  0  0  0  0  0  0  0  0
   19.3800   21.3567   24.4727 H   0  0  0  0  0  0  0  0  0  0  0  0
   18.5122   20.1263   23.5960 H   0  0  0  0  0  0  0  0  0  0  0  0
   20.5295   19.5626   24.1777 C   0  0  0  0  0  0  0  0  0  0  0  0
   21.3778   20.1096   24.6139 H   0  0  0  0  0  0  0  0  0  0  0  0
   21.0990   18.6235   23.0889 C   0  0  0  0  0  0  0  0  0  0  0  0
   21.8727   19.1605   22.5271 H   0  0  0  0  0  0  0  0  0  0  0  0
   21.6332   17.8002   23.5805 H   0  0  0  0  0  0  0  0  0  0  0  0
   20.0614   18.0214   22.1031 C   0  0  0  0  0  0  0  0  0  0  0  0
   20.5968   17.3271   21.4413 H   0  0  0  0  0  0  0  0  0  0  0  0
   19.3415   17.4064   22.6603 H   0  0  0  0  0  0  0  0  0  0  0  0
   19.9155   18.7735   25.1899 O   0  0  0  0  0  0  0  0  0  0  0  0
   20.5876   18.1275   25.4903 H   0  0  0  0  0  0  0  0  0  0  0  0
  1  2  1  0  0  0  0
  1  3  1  0  0  0  0
  1  4  1  0  0  0  0
  4  5  1  0  0  0  0
  4  6  1  0  0  0  0
  4  7  1  0  0  0  0
  7  8  1  0  0  0  0
  7  9  1  0  0  0  0
  7 10  1  0  0  0  0
 10 11  1  0  0  0  0
 10 12  1  0  0  0  0
 10 13  1  0  0  0  0
 13 14  1  0  0  0  0
 13 15  1  0  0  0  0
 15 16  1  0  0  0  0
 15 17  1  0  0  0  0
  1 18  1  0  0  0  0
 15 18  1  0  0  0  0
 18 19  1  0  0  0  0
 18 20  1  0  0  0  0
 13 21  1  0  0  0  0
 21 22  1  0  0  0  0
M  END
> <VM2 Rank>
74

> <Conf_Id>
1954

> <Probability>
0.01

> <Sum Probability>
100.00

> <Delta G>
3.907

> <G>
51.270

> <E>
24.473

> <-TS>
26.797

> <U+W>
6.588

> <U>
8.919

> <W>
-2.331

> <W(PB)>
-4.332

> <W(SA)>
2.001

> <Valence>
13.464

> <Coulomb>
-8.153

> <VdW>
3.608

> <VdW6>
-9.941

> <VdW12>
13.549

> <Bond>
0.437

> <Angle>
3.544

> <Pdih>
9.483

> <Idih>
0.000

> <Tether>
0.000

$$$$
VeraChem MOL file


 22 22  0  0  0  0  0  0  0  0999 V2000     
   19.3348   18.7774   21.4294 C   0  0  0  0  0  0  0  0  0  0  0  0
   18.6614   18.0827   21.9490 H   0  0  0  0  0  0  0  0  0  0  0  0
   19.1864   18.5696   20.3607 H   0  0  0  0  0  0  0  0  0  0  0  0
   18.8977   20.2479   21.6950 C   0  0  0  0  0  0  0  0  0  0  0  0
   18.5599   20.6765   20.7413 H   0  0  0  0  0  0  0  0  0  0  0  0
   18.0119   20.2680   22.3439 H   0  0  0  0  0  0  0  0  0  0  0  0
   19.9871   21.1859   22.2748 C   0  0  0  0  0  0  0  0  0  0  0  0
   19.6145   22.2183   22.2305 H   0  0  0  0  0  0  0  0  0  0  0  0
   20.8665   21.1818   21.6189 H   0  0  0  0  0  0  0  0  0  0  0  0
   20.4232   20.9004   23.7387 C   0  0  0  0  0  0  0  0  0  0  0  0
   21.4201   21.3338   23.8903 H   0  0  0  0  0  0  0  0  0  0  0  0
   19.7592   21.4573   24.4132 H   0  0  0  0  0  0  0  0  0  0  0  0
   20.4501   19.4290   24.2208 C   0  0  0  0  0  0  0  0  0  0  0  0
   20.9899   19.4165   25.1785 H   0  0  0  0  0  0  0  0  0  0  0  0
   21.1614   18.4160   23.2902 C   0  0  0  0  0  0  0  0  0  0  0  0
   22.2456   18.5556   23.3889 H   0  0  0  0  0  0  0  0  0  0  0  0
   20.9616   17.4098   23.6823 H   0  0  0  0  0  0  0  0  0  0  0  0
   20.8054   18.4328   21.7776 C   0  0  0  0  0  0  0  0  0  0  0  0
   21.4813   19.1138   21.2456 H   0  0  0  0  0  0  0  0  0  0  0  0
   21.0350   17.4399   21.3674 H   0  0  0  0  0  0  0  0  0  0  0  0
   19.1264   18.9888   24.4805 O   0  0  0  0  0  0  0  0  0  0  0  0
   18.6916   19.0176   23.6047 H   0  0  0  0  0  0  0  0  0  0  0  0
  1  2  1  0  0  0  0
  1  3  1  0  0  0  0
  1  4  1  0  0  0  0
  4  5  1  0  0  0  0
  4  6  1  0  0  0  0
  4  7  1  0  0  0  0
  7  8  1  0  0  0  0
  7  9  1  0  0  0  0
  7 10  1  0  0  0  0
 10 11  1  0  0  0  0
 10 12  1  0  0  0  0
 10 13  1  0  0  0  0
 13 14  1  0  0  0  0
 13 15  1  0  0  0  0
 15 16  1  0  0  0  0
 15 17  1  0  0  0  0
  1 18  1  0  0  0  0
 15 18  1  0  0  0  0
 18 19  1  0  0  0  0
 18 20  1  0  0  0  0
 13 21  1  0  0  0  0
 21 22  1  0  0  0  0
M  END
> <VM2 Rank>
75

> <Conf_Id>
1376

> <Probability>
0.00

> <Sum Probability>
100.00

> <Delta G>
4.825

> <G>
52.187

> <E>
25.238

> <-TS>
26.949

> <U+W>
7.353

> <U>
8.455

> <W>
-1.102

> <W(PB)>
-3.102

> <W(SA)>
2.000

> <Valence>
15.601

> <Coulomb>
-10.573

> <VdW>
3.427

> <VdW6>
-11.360

> <VdW12>
14.787

> <Bond>
0.470

> <Angle>
5.445

> <Pdih>
9.685

> <Idih>
0.000

> <Tether>
0.000

$$$$
VeraChem MOL file


 22 22  0  0  0  0  0  0  0  0999 V2000     
   20.5735   19.1105   21.2419 C   0  0  0  0  0  0  0  0  0  0  0  0
   21.6146   18.8768   21.5019 H   0  0  0  0  0  0  0  0  0  0  0  0
   20.5027   18.9235   20.1614 H   0  0  0  0  0  0  0  0  0  0  0  0
   20.2861   20.6212   21.4848 C   0  0  0  0  0  0  0  0  0  0  0  0
   21.1873   21.1218   21.8631 H   0  0  0  0  0  0  0  0  0  0  0  0
   20.0909   21.0881   20.5095 H   0  0  0  0  0  0  0  0  0  0  0  0
   19.0858   20.9435   22.4112 C   0  0  0  0  0  0  0  0  0  0  0  0
   18.1800   20.4594   22.0257 H   0  0  0  0  0  0  0  0  0  0  0  0
   18.8743   22.0193   22.3425 H   0  0  0  0  0  0  0  0  0  0  0  0
   19.2706   20.5905   23.9133 C   0  0  0  0  0  0  0  0  0  0  0  0
   19.7322   21.4501   24.4173 H   0  0  0  0  0  0  0  0  0  0  0  0
   18.2761   20.4886   24.3664 H   0  0  0  0  0  0  0  0  0  0  0  0
   20.1040   19.3359   24.2732 C   0  0  0  0  0  0  0  0  0  0  0  0
   19.9289   19.1312   25.3391 H   0  0  0  0  0  0  0  0  0  0  0  0
   19.7564   18.0383   23.5029 C   0  0  0  0  0  0  0  0  0  0  0  0
   20.5238   17.2921   23.7486 H   0  0  0  0  0  0  0  0  0  0  0  0
   18.8194   17.6345   23.9076 H   0  0  0  0  0  0  0  0  0  0  0  0
   19.6241   18.1151   21.9565 C   0  0  0  0  0  0  0  0  0  0  0  0
   18.5843   18.3347   21.6842 H   0  0  0  0  0  0  0  0  0  0  0  0
   19.8086   17.1101   21.5532 H   0  0  0  0  0  0  0  0  0  0  0  0
   21.4855   19.6230   24.1233 O   0  0  0  0  0  0  0  0  0  0  0  0
   21.5884   19.7964   23.1661 H   0  0  0  0  0  0  0  0  0  0  0  0
  1  2  1  0  0  0  0
  1  3  1  0  0  0  0
  1  4  1  0  0  0  0
  4  5  1  0  0  0  0
  4  6  1  0  0  0  0
  4  7  1  0  0  0  0
  7  8  1  0  0  0  0
  7  9  1  0  0  0  0
  7 10  1  0  0  0  0
 10 11  1  0  0  0  0
 10 12  1  0  0  0  0
 10 13  1  0  0  0  0
 13 14  1  0  0  0  0
 13 15  1  0  0  0  0
 15 16  1  0  0  0  0
 15 17  1  0  0  0  0
  1 18  1  0  0  0  0
 15 18  1  0  0  0  0
 18 19  1  0  0  0  0
 18 20  1  0  0  0  0
 13 21  1  0  0  0  0
 21 22  1  0  0  0  0
M  END
> <VM2 Rank>
76

> <Conf_Id>
2632

> <Probability>
0.00

> <Sum Probability>
100.00

> <Delta G>
4.844

> <G>
52.206

> <E>
25.257

> <-TS>
26.949

> <U+W>
7.373

> <U>
8.455

> <W>
-1.083

> <W(PB)>
-3.072

> <W(SA)>
1.990

> <Valence>
15.601

> <Coulomb>
-10.573

> <VdW>
3.427

> <VdW6>
-11.360

> <VdW12>
14.787

> <Bond>
0.470

> <Angle>
5.445

> <Pdih>
9.686

> <Idih>
0.000

> <Tether>
0.000

$$$$
VeraChem MOL file


 22 22  0  0  0  0  0  0  0  0999 V2000     
   19.3241   18.7757   21.4434 C   0  0  0  0  0  0  0  0  0  0  0  0
   19.1379   18.5326   20.3885 H   0  0  0  0  0  0  0  0  0  0  0  0
   18.6591   18.1149   22.0153 H   0  0  0  0  0  0  0  0  0  0  0  0
   18.9107   20.2566   21.6810 C   0  0  0  0  0  0  0  0  0  0  0  0
   18.5780   20.6785   20.7230 H   0  0  0  0  0  0  0  0  0  0  0  0
   18.0301   20.2858   22.3372 H   0  0  0  0  0  0  0  0  0  0  0  0
   20.0058   21.1852   22.2629 C   0  0  0  0  0  0  0  0  0  0  0  0
   19.6509   22.2227   22.1989 H   0  0  0  0  0  0  0  0  0  0  0  0
   20.8995   21.1567   21.6278 H   0  0  0  0  0  0  0  0  0  0  0  0
   20.3957   20.9063   23.7396 C   0  0  0  0  0  0  0  0  0  0  0  0
   21.3741   21.3662   23.9281 H   0  0  0  0  0  0  0  0  0  0  0  0
   19.6909   21.4398   24.3910 H   0  0  0  0  0  0  0  0  0  0  0  0
   20.4461   19.4319   24.2143 C   0  0  0  0  0  0  0  0  0  0  0  0
   21.0077   19.4323   25.1596 H   0  0  0  0  0  0  0  0  0  0  0  0
   21.1730   18.4322   23.2774 C   0  0  0  0  0  0  0  0  0  0  0  0
   22.2536   18.6076   23.3572 H   0  0  0  0  0  0  0  0  0  0  0  0
   21.0154   17.4224   23.6781 H   0  0  0  0  0  0  0  0  0  0  0  0
   20.7965   18.4226   21.7694 C   0  0  0  0  0  0  0  0  0  0  0  0
   21.4688   19.0870   21.2127 H   0  0  0  0  0  0  0  0  0  0  0  0
   21.0087   17.4196   21.3751 H   0  0  0  0  0  0  0  0  0  0  0  0
   19.1341   18.9674   24.5189 O   0  0  0  0  0  0  0  0  0  0  0  0
   19.2173   18.0184   24.7400 H   0  0  0  0  0  0  0  0  0  0  0  0
  1  2  1  0  0  0  0
  1  3  1  0  0  0  0
  1  4  1  0  0  0  0
  4  5  1  0  0  0  0
  4  6  1  0  0  0  0
  4  7  1  0  0  0  0
  7  8  1  0  0  0  0
  7  9  1  0  0  0  0
  7 10  1  0  0  0  0
 10 11  1  0  0  0  0
 10 12  1  0  0  0  0
 10 13  1  0  0  0  0
 13 14  1  0  0  0  0
 13 15  1  0  0  0  0
 15 16  1  0  0  0  0
 15 17  1  0  0  0  0
  1 18  1  0  0  0  0
 15 18  1  0  0  0  0
 18 19  1  0  0  0  0
 18 20  1  0  0  0  0
 13 21  1  0  0  0  0
 21 22  1  0  0  0  0
M  END
> <VM2 Rank>
77

> <Conf_Id>
1958

> <Probability>
0.00

> <Sum Probability>
100.00

> <Delta G>
6.646

> <G>
54.009

> <E>
27.803

> <-TS>
26.205

> <U+W>
9.919

> <U>
11.966

> <W>
-2.047

> <W(PB)>
-4.020

> <W(SA)>
1.973

> <Valence>
15.235

> <Coulomb>
-6.623

> <VdW>
3.353

> <VdW6>
-10.808

> <VdW12>
14.162

> <Bond>
0.452

> <Angle>
5.180

> <Pdih>
9.603

> <Idih>
0.000

> <Tether>
0.000

$$$$
