VeraChem MOL file


 26 25  0  0  0  0  0  0  0  0999 V2000     
   20.2414   18.6562   18.8060 C   0  0  0  0  0  0  0  0  0  0  0  0
   19.6042   19.4968   18.5017 H   0  0  0  0  0  0  0  0  0  0  0  0
   21.0557   18.5688   18.0750 H   0  0  0  0  0  0  0  0  0  0  0  0
   19.6428   17.7374   18.7550 H   0  0  0  0  0  0  0  0  0  0  0  0
   20.8051   18.8730   20.2263 C   0  0  0  0  0  0  0  0  0  0  0  0
   21.4261   19.7797   20.2375 H   0  0  0  0  0  0  0  0  0  0  0  0
   21.4645   18.0338   20.4887 H   0  0  0  0  0  0  0  0  0  0  0  0
   19.6785   18.9994   21.2757 C   0  0  0  0  0  0  0  0  0  0  0  0
   19.0205   19.8374   21.0067 H   0  0  0  0  0  0  0  0  0  0  0  0
   19.0595   18.0916   21.2595 H   0  0  0  0  0  0  0  0  0  0  0  0
   20.2389   19.2174   22.6994 C   0  0  0  0  0  0  0  0  0  0  0  0
   20.8549   20.1274   22.7150 H   0  0  0  0  0  0  0  0  0  0  0  0
   20.9000   18.3795   22.9576 H   0  0  0  0  0  0  0  0  0  0  0  0
   19.1076   19.3423   23.7488 C   0  0  0  0  0  0  0  0  0  0  0  0
   18.4279   20.1490   23.4434 H   0  0  0  0  0  0  0  0  0  0  0  0
   18.5119   18.4198   23.7646 H   0  0  0  0  0  0  0  0  0  0  0  0
   19.6331   19.6456   25.1688 C   0  0  1  0  0  0  0  0  0  0  0  0
   20.2419   20.5539   25.1223 H   0  0  0  0  0  0  0  0  0  0  0  0
   18.4605   19.8996   26.1296 C   0  0  0  0  0  0  0  0  0  0  0  0
   17.8447   20.7377   25.7803 H   0  0  0  0  0  0  0  0  0  0  0  0
   18.8276   20.1520   27.1321 H   0  0  0  0  0  0  0  0  0  0  0  0
   17.8173   19.0147   26.2138 H   0  0  0  0  0  0  0  0  0  0  0  0
   20.5229   18.5546   25.6994 N   0  3  0  0  0  0  0  0  0  0  0  0
   20.0217   17.6651   25.7696 H   0  0  0  0  0  0  0  0  0  0  0  0
   21.3337   18.4049   25.0931 H   0  0  0  0  0  0  0  0  0  0  0  0
   20.8769   18.7814   26.6330 H   0  0  0  0  0  0  0  0  0  0  0  0
  1  2  1  0  0  0  0
  1  3  1  0  0  0  0
  1  4  1  0  0  0  0
  1  5  1  0  0  0  0
  5  6  1  0  0  0  0
  5  7  1  0  0  0  0
  5  8  1  0  0  0  0
  8  9  1  0  0  0  0
  8 10  1  0  0  0  0
  8 11  1  0  0  0  0
 11 12  1  0  0  0  0
 11 13  1  0  0  0  0
 11 14  1  0  0  0  0
 14 15  1  0  0  0  0
 14 16  1  0  0  0  0
 14 17  1  0  0  0  0
 17 18  1  0  0  0  0
 17 19  1  0  0  0  0
 19 20  1  0  0  0  0
 19 21  1  0  0  0  0
 19 22  1  0  0  0  0
 17 23  1  0  0  0  0
 23 24  1  0  0  0  0
 23 25  1  0  0  0  0
 23 26  1  0  0  0  0
M  END
> <VM2 Rank>
1

> <Conf_Id>
613

> <Probability>
16.98

> <Sum Probability>
16.98

> <Delta G>
0.000

> <G>
23.712

> <E>
-8.840

> <-TS>
32.553

> <U+W>
-30.302

> <U>
23.517

> <W>
-53.817

> <W(PB)>
-56.163

> <W(SA)>
2.346

> <Valence>
2.737

> <Coulomb>
19.862

> <VdW>
0.919

> <VdW6>
-6.793

> <VdW12>
7.712

> <Bond>
0.171

> <Angle>
0.873

> <Pdih>
1.693

> <Idih>
0.000

> <Tether>
0.000

$$$$
VeraChem MOL file


 26 25  0  0  0  0  0  0  0  0999 V2000     
   20.2651   18.6438   18.8026 C   0  0  0  0  0  0  0  0  0  0  0  0
   21.1742   18.0291   18.8332 H   0  0  0  0  0  0  0  0  0  0  0  0
   19.4028   17.9736   18.6903 H   0  0  0  0  0  0  0  0  0  0  0  0
   20.3173   19.2783   17.9084 H   0  0  0  0  0  0  0  0  0  0  0  0
   20.1353   19.5062   20.0760 C   0  0  0  0  0  0  0  0  0  0  0  0
   19.2362   20.1339   20.0009 H   0  0  0  0  0  0  0  0  0  0  0  0
   20.9939   20.1889   20.1429 H   0  0  0  0  0  0  0  0  0  0  0  0
   20.0597   18.6366   21.3506 C   0  0  0  0  0  0  0  0  0  0  0  0
   19.2010   17.9547   21.2783 H   0  0  0  0  0  0  0  0  0  0  0  0
   20.9590   18.0089   21.4186 H   0  0  0  0  0  0  0  0  0  0  0  0
   19.9302   19.4968   22.6281 C   0  0  0  0  0  0  0  0  0  0  0  0
   19.0340   20.1256   22.5455 H   0  0  0  0  0  0  0  0  0  0  0  0
   20.7917   20.1749   22.7022 H   0  0  0  0  0  0  0  0  0  0  0  0
   19.8500   18.6222   23.9036 C   0  0  0  0  0  0  0  0  0  0  0  0
   18.9534   17.9894   23.8631 H   0  0  0  0  0  0  0  0  0  0  0  0
   20.7112   17.9410   23.9147 H   0  0  0  0  0  0  0  0  0  0  0  0
   19.8535   19.4355   25.2183 C   0  0  1  0  0  0  0  0  0  0  0  0
   20.7326   20.0873   25.2161 H   0  0  0  0  0  0  0  0  0  0  0  0
   18.5969   20.3130   25.3617 C   0  0  0  0  0  0  0  0  0  0  0  0
   17.6826   19.7092   25.3053 H   0  0  0  0  0  0  0  0  0  0  0  0
   18.5529   21.0782   24.5782 H   0  0  0  0  0  0  0  0  0  0  0  0
   18.5995   20.8366   26.3256 H   0  0  0  0  0  0  0  0  0  0  0  0
   19.9974   18.5340   26.4131 N   0  3  0  0  0  0  0  0  0  0  0  0
   19.2077   17.8877   26.4919 H   0  0  0  0  0  0  0  0  0  0  0  0
   20.8513   17.9713   26.3608 H   0  0  0  0  0  0  0  0  0  0  0  0
   20.0403   19.0710   27.2839 H   0  0  0  0  0  0  0  0  0  0  0  0
  1  2  1  0  0  0  0
  1  3  1  0  0  0  0
  1  4  1  0  0  0  0
  1  5  1  0  0  0  0
  5  6  1  0  0  0  0
  5  7  1  0  0  0  0
  5  8  1  0  0  0  0
  8  9  1  0  0  0  0
  8 10  1  0  0  0  0
  8 11  1  0  0  0  0
 11 12  1  0  0  0  0
 11 13  1  0  0  0  0
 11 14  1  0  0  0  0
 14 15  1  0  0  0  0
 14 16  1  0  0  0  0
 14 17  1  0  0  0  0
 17 18  1  0  0  0  0
 17 19  1  0  0  0  0
 19 20  1  0  0  0  0
 19 21  1  0  0  0  0
 19 22  1  0  0  0  0
 17 23  1  0  0  0  0
 23 24  1  0  0  0  0
 23 25  1  0  0  0  0
 23 26  1  0  0  0  0
M  END
> <VM2 Rank>
2

> <Conf_Id>
969

> <Probability>
7.72

> <Sum Probability>
24.69

> <Delta G>
0.470

> <G>
24.182

> <E>
-8.384

> <-TS>
32.567

> <U+W>
-29.846

> <U>
23.817

> <W>
-53.664

> <W(PB)>
-56.022

> <W(SA)>
2.358

> <Valence>
3.277

> <Coulomb>
19.492

> <VdW>
1.049

> <VdW6>
-6.949

> <VdW12>
7.998

> <Bond>
0.183

> <Angle>
1.152

> <Pdih>
1.942

> <Idih>
0.000

> <Tether>
0.000

$$$$
VeraChem MOL file


 26 25  0  0  0  0  0  0  0  0999 V2000     
   20.3613   18.7664   18.8989 C   0  0  0  0  0  0  0  0  0  0  0  0
   20.3290   17.9289   18.1900 H   0  0  0  0  0  0  0  0  0  0  0  0
   19.6207   19.5098   18.5761 H   0  0  0  0  0  0  0  0  0  0  0  0
   21.3567   19.2248   18.8338 H   0  0  0  0  0  0  0  0  0  0  0  0
   20.0681   18.2779   20.3333 C   0  0  0  0  0  0  0  0  0  0  0  0
   20.8040   17.5117   20.6148 H   0  0  0  0  0  0  0  0  0  0  0  0
   19.0814   17.7945   20.3590 H   0  0  0  0  0  0  0  0  0  0  0  0
   20.1074   19.4385   21.3521 C   0  0  0  0  0  0  0  0  0  0  0  0
   21.0946   19.9198   21.3202 H   0  0  0  0  0  0  0  0  0  0  0  0
   19.3719   20.2027   21.0647 H   0  0  0  0  0  0  0  0  0  0  0  0
   19.8141   18.9535   22.7899 C   0  0  0  0  0  0  0  0  0  0  0  0
   20.5513   18.1892   23.0694 H   0  0  0  0  0  0  0  0  0  0  0  0
   18.8284   18.4704   22.8097 H   0  0  0  0  0  0  0  0  0  0  0  0
   19.8523   20.1239   23.8070 C   0  0  0  0  0  0  0  0  0  0  0  0
   20.8255   20.6277   23.7405 H   0  0  0  0  0  0  0  0  0  0  0  0
   19.1035   20.8754   23.5235 H   0  0  0  0  0  0  0  0  0  0  0  0
   19.6133   19.7157   25.2800 C   0  0  1  0  0  0  0  0  0  0  0  0
   19.6967   20.6232   25.8861 H   0  0  0  0  0  0  0  0  0  0  0  0
   18.2040   19.1383   25.4994 C   0  0  0  0  0  0  0  0  0  0  0  0
   18.0784   18.1719   24.9971 H   0  0  0  0  0  0  0  0  0  0  0  0
   17.4376   19.8256   25.1202 H   0  0  0  0  0  0  0  0  0  0  0  0
   18.0142   18.9865   26.5691 H   0  0  0  0  0  0  0  0  0  0  0  0
   20.6676   18.7738   25.7935 N   0  3  0  0  0  0  0  0  0  0  0  0
   20.6509   17.8852   25.2871 H   0  0  0  0  0  0  0  0  0  0  0  0
   21.6065   19.1695   25.6918 H   0  0  0  0  0  0  0  0  0  0  0  0
   20.5304   18.5640   26.7862 H   0  0  0  0  0  0  0  0  0  0  0  0
  1  2  1  0  0  0  0
  1  3  1  0  0  0  0
  1  4  1  0  0  0  0
  1  5  1  0  0  0  0
  5  6  1  0  0  0  0
  5  7  1  0  0  0  0
  5  8  1  0  0  0  0
  8  9  1  0  0  0  0
  8 10  1  0  0  0  0
  8 11  1  0  0  0  0
 11 12  1  0  0  0  0
 11 13  1  0  0  0  0
 11 14  1  0  0  0  0
 14 15  1  0  0  0  0
 14 16  1  0  0  0  0
 14 17  1  0  0  0  0
 17 18  1  0  0  0  0
 17 19  1  0  0  0  0
 19 20  1  0  0  0  0
 19 21  1  0  0  0  0
 19 22  1  0  0  0  0
 17 23  1  0  0  0  0
 23 24  1  0  0  0  0
 23 25  1  0  0  0  0
 23 26  1  0  0  0  0
M  END
> <VM2 Rank>
3

> <Conf_Id>
995

> <Probability>
7.21

> <Sum Probability>
31.91

> <Delta G>
0.511

> <G>
24.223

> <E>
-8.475

> <-TS>
32.698

> <U+W>
-29.937

> <U>
24.060

> <W>
-53.997

> <W(PB)>
-56.329

> <W(SA)>
2.332

> <Valence>
3.249

> <Coulomb>
19.781

> <VdW>
1.030

> <VdW6>
-7.421

> <VdW12>
8.451

> <Bond>
0.207

> <Angle>
1.205

> <Pdih>
1.837

> <Idih>
0.000

> <Tether>
0.000

$$$$
VeraChem MOL file


 26 25  0  0  0  0  0  0  0  0999 V2000     
   21.0483   19.5372   19.5910 C   0  0  0  0  0  0  0  0  0  0  0  0
   21.6441   19.2910   18.7026 H   0  0  0  0  0  0  0  0  0  0  0  0
   20.3767   20.3641   19.3262 H   0  0  0  0  0  0  0  0  0  0  0  0
   21.7412   19.8906   20.3646 H   0  0  0  0  0  0  0  0  0  0  0  0
   20.2491   18.3022   20.0653 C   0  0  0  0  0  0  0  0  0  0  0  0
   20.9437   17.5005   20.3525 H   0  0  0  0  0  0  0  0  0  0  0  0
   19.6638   17.9135   19.2203 H   0  0  0  0  0  0  0  0  0  0  0  0
   19.2860   18.6059   21.2383 C   0  0  0  0  0  0  0  0  0  0  0  0
   18.5787   19.3911   20.9375 H   0  0  0  0  0  0  0  0  0  0  0  0
   18.6847   17.7079   21.4370 H   0  0  0  0  0  0  0  0  0  0  0  0
   20.0117   19.0260   22.5390 C   0  0  0  0  0  0  0  0  0  0  0  0
   20.5568   19.9651   22.3753 H   0  0  0  0  0  0  0  0  0  0  0  0
   20.7571   18.2624   22.7974 H   0  0  0  0  0  0  0  0  0  0  0  0
   19.0190   19.2155   23.7118 C   0  0  0  0  0  0  0  0  0  0  0  0
   18.2493   19.9389   23.4112 H   0  0  0  0  0  0  0  0  0  0  0  0
   18.4984   18.2702   23.9150 H   0  0  0  0  0  0  0  0  0  0  0  0
   19.7000   19.7209   25.0022 C   0  0  1  0  0  0  0  0  0  0  0  0
   20.2300   20.6496   24.7690 H   0  0  0  0  0  0  0  0  0  0  0  0
   18.6461   20.0245   26.0791 C   0  0  0  0  0  0  0  0  0  0  0  0
   19.1202   20.4190   26.9862 H   0  0  0  0  0  0  0  0  0  0  0  0
   18.0852   19.1216   26.3515 H   0  0  0  0  0  0  0  0  0  0  0  0
   17.9309   20.7767   25.7237 H   0  0  0  0  0  0  0  0  0  0  0  0
   20.7278   18.7558   25.5273 N   0  3  0  0  0  0  0  0  0  0  0  0
   21.1825   19.1158   26.3711 H   0  0  0  0  0  0  0  0  0  0  0  0
   20.3057   17.8550   25.7673 H   0  0  0  0  0  0  0  0  0  0  0  0
   21.4618   18.5784   24.8365 H   0  0  0  0  0  0  0  0  0  0  0  0
  1  2  1  0  0  0  0
  1  3  1  0  0  0  0
  1  4  1  0  0  0  0
  1  5  1  0  0  0  0
  5  6  1  0  0  0  0
  5  7  1  0  0  0  0
  5  8  1  0  0  0  0
  8  9  1  0  0  0  0
  8 10  1  0  0  0  0
  8 11  1  0  0  0  0
 11 12  1  0  0  0  0
 11 13  1  0  0  0  0
 11 14  1  0  0  0  0
 14 15  1  0  0  0  0
 14 16  1  0  0  0  0
 14 17  1  0  0  0  0
 17 18  1  0  0  0  0
 17 19  1  0  0  0  0
 19 20  1  0  0  0  0
 19 21  1  0  0  0  0
 19 22  1  0  0  0  0
 17 23  1  0  0  0  0
 23 24  1  0  0  0  0
 23 25  1  0  0  0  0
 23 26  1  0  0  0  0
M  END
> <VM2 Rank>
4

> <Conf_Id>
1012

> <Probability>
6.30

> <Sum Probability>
38.21

> <Delta G>
0.591

> <G>
24.303

> <E>
-8.362

> <-TS>
32.665

> <U+W>
-29.824

> <U>
24.148

> <W>
-53.972

> <W(PB)>
-56.283

> <W(SA)>
2.311

> <Valence>
3.242

> <Coulomb>
19.863

> <VdW>
1.043

> <VdW6>
-7.422

> <VdW12>
8.465

> <Bond>
0.206

> <Angle>
1.112

> <Pdih>
1.924

> <Idih>
0.000

> <Tether>
0.000

$$$$
VeraChem MOL file


 26 25  0  0  0  0  0  0  0  0999 V2000     
   21.0698   18.0176   19.8286 C   0  0  0  0  0  0  0  0  0  0  0  0
   21.6580   18.0076   18.9019 H   0  0  0  0  0  0  0  0  0  0  0  0
   21.7716   17.9122   20.6651 H   0  0  0  0  0  0  0  0  0  0  0  0
   20.4118   17.1390   19.8179 H   0  0  0  0  0  0  0  0  0  0  0  0
   20.2510   19.3242   19.9348 C   0  0  0  0  0  0  0  0  0  0  0  0
   19.6581   19.4456   19.0175 H   0  0  0  0  0  0  0  0  0  0  0  0
   20.9326   20.1853   19.9763 H   0  0  0  0  0  0  0  0  0  0  0  0
   19.2943   19.3545   21.1513 C   0  0  0  0  0  0  0  0  0  0  0  0
   18.6763   20.2606   21.0852 H   0  0  0  0  0  0  0  0  0  0  0  0
   18.6017   18.5034   21.0944 H   0  0  0  0  0  0  0  0  0  0  0  0
   20.0282   19.3402   22.5138 C   0  0  0  0  0  0  0  0  0  0  0  0
   20.7543   20.1643   22.5471 H   0  0  0  0  0  0  0  0  0  0  0  0
   20.5966   18.4072   22.6136 H   0  0  0  0  0  0  0  0  0  0  0  0
   19.0396   19.4756   23.6975 C   0  0  0  0  0  0  0  0  0  0  0  0
   18.4433   20.3875   23.5598 H   0  0  0  0  0  0  0  0  0  0  0  0
   18.3330   18.6350   23.6891 H   0  0  0  0  0  0  0  0  0  0  0  0
   19.7463   19.5467   25.0687 C   0  0  1  0  0  0  0  0  0  0  0  0
   20.4617   20.3745   25.0431 H   0  0  0  0  0  0  0  0  0  0  0  0
   18.7246   19.8266   26.1825 C   0  0  0  0  0  0  0  0  0  0  0  0
   17.9821   19.0217   26.2517 H   0  0  0  0  0  0  0  0  0  0  0  0
   18.1921   20.7674   25.9958 H   0  0  0  0  0  0  0  0  0  0  0  0
   19.2246   19.9150   27.1549 H   0  0  0  0  0  0  0  0  0  0  0  0
   20.5343   18.3026   25.3768 N   0  3  0  0  0  0  0  0  0  0  0  0
   21.2507   18.1281   24.6671 H   0  0  0  0  0  0  0  0  0  0  0  0
   21.0103   18.3755   26.2804 H   0  0  0  0  0  0  0  0  0  0  0  0
   19.9298   17.4777   25.4147 H   0  0  0  0  0  0  0  0  0  0  0  0
  1  2  1  0  0  0  0
  1  3  1  0  0  0  0
  1  4  1  0  0  0  0
  1  5  1  0  0  0  0
  5  6  1  0  0  0  0
  5  7  1  0  0  0  0
  5  8  1  0  0  0  0
  8  9  1  0  0  0  0
  8 10  1  0  0  0  0
  8 11  1  0  0  0  0
 11 12  1  0  0  0  0
 11 13  1  0  0  0  0
 11 14  1  0  0  0  0
 14 15  1  0  0  0  0
 14 16  1  0  0  0  0
 14 17  1  0  0  0  0
 17 18  1  0  0  0  0
 17 19  1  0  0  0  0
 19 20  1  0  0  0  0
 19 21  1  0  0  0  0
 19 22  1  0  0  0  0
 17 23  1  0  0  0  0
 23 24  1  0  0  0  0
 23 25  1  0  0  0  0
 23 26  1  0  0  0  0
M  END
> <VM2 Rank>
5

> <Conf_Id>
1081

> <Probability>
6.05

> <Sum Probability>
44.25

> <Delta G>
0.616

> <G>
24.328

> <E>
-8.330

> <-TS>
32.658

> <U+W>
-29.792

> <U>
24.259

> <W>
-54.052

> <W(PB)>
-56.355

> <W(SA)>
2.304

> <Valence>
3.240

> <Coulomb>
19.971

> <VdW>
1.049

> <VdW6>
-7.432

> <VdW12>
8.481

> <Bond>
0.208

> <Angle>
1.110

> <Pdih>
1.922

> <Idih>
0.000

> <Tether>
0.000

$$$$
VeraChem MOL file


 26 25  0  0  0  0  0  0  0  0999 V2000     
   20.8971   19.5642   19.3397 C   0  0  0  0  0  0  0  0  0  0  0  0
   21.6802   20.2088   19.7600 H   0  0  0  0  0  0  0  0  0  0  0  0
   21.3060   19.0769   18.4452 H   0  0  0  0  0  0  0  0  0  0  0  0
   20.0619   20.2027   19.0235 H   0  0  0  0  0  0  0  0  0  0  0  0
   20.4325   18.5123   20.3691 C   0  0  0  0  0  0  0  0  0  0  0  0
   21.2808   17.8685   20.6406 H   0  0  0  0  0  0  0  0  0  0  0  0
   19.6756   17.8618   19.9088 H   0  0  0  0  0  0  0  0  0  0  0  0
   19.8510   19.1725   21.6388 C   0  0  0  0  0  0  0  0  0  0  0  0
   20.6121   19.8275   22.0832 H   0  0  0  0  0  0  0  0  0  0  0  0
   19.0023   19.8130   21.3614 H   0  0  0  0  0  0  0  0  0  0  0  0
   19.3869   18.1185   22.6727 C   0  0  0  0  0  0  0  0  0  0  0  0
   20.2367   17.4902   22.9710 H   0  0  0  0  0  0  0  0  0  0  0  0
   18.6632   17.4429   22.1961 H   0  0  0  0  0  0  0  0  0  0  0  0
   18.7226   18.7436   23.9263 C   0  0  0  0  0  0  0  0  0  0  0  0
   17.8185   19.2834   23.6144 H   0  0  0  0  0  0  0  0  0  0  0  0
   18.3840   17.9378   24.5911 H   0  0  0  0  0  0  0  0  0  0  0  0
   19.6370   19.7072   24.7157 C   0  0  1  0  0  0  0  0  0  0  0  0
   19.9488   20.5136   24.0454 H   0  0  0  0  0  0  0  0  0  0  0  0
   18.8678   20.3323   25.8903 C   0  0  0  0  0  0  0  0  0  0  0  0
   19.4995   21.0475   26.4314 H   0  0  0  0  0  0  0  0  0  0  0  0
   18.5346   19.5651   26.6004 H   0  0  0  0  0  0  0  0  0  0  0  0
   17.9833   20.8740   25.5326 H   0  0  0  0  0  0  0  0  0  0  0  0
   20.8933   19.0374   25.2014 N   0  3  0  0  0  0  0  0  0  0  0  0
   21.4999   19.6946   25.6999 H   0  0  0  0  0  0  0  0  0  0  0  0
   20.6819   18.2683   25.8425 H   0  0  0  0  0  0  0  0  0  0  0  0
   21.4331   18.6507   24.4225 H   0  0  0  0  0  0  0  0  0  0  0  0
  1  2  1  0  0  0  0
  1  3  1  0  0  0  0
  1  4  1  0  0  0  0
  1  5  1  0  0  0  0
  5  6  1  0  0  0  0
  5  7  1  0  0  0  0
  5  8  1  0  0  0  0
  8  9  1  0  0  0  0
  8 10  1  0  0  0  0
  8 11  1  0  0  0  0
 11 12  1  0  0  0  0
 11 13  1  0  0  0  0
 11 14  1  0  0  0  0
 14 15  1  0  0  0  0
 14 16  1  0  0  0  0
 14 17  1  0  0  0  0
 17 18  1  0  0  0  0
 17 19  1  0  0  0  0
 19 20  1  0  0  0  0
 19 21  1  0  0  0  0
 19 22  1  0  0  0  0
 17 23  1  0  0  0  0
 23 24  1  0  0  0  0
 23 25  1  0  0  0  0
 23 26  1  0  0  0  0
M  END
> <VM2 Rank>
6

> <Conf_Id>
452

> <Probability>
5.30

> <Sum Probability>
49.56

> <Delta G>
0.694

> <G>
24.406

> <E>
-8.339

> <-TS>
32.745

> <U+W>
-29.801

> <U>
24.149

> <W>
-53.949

> <W(PB)>
-56.255

> <W(SA)>
2.306

> <Valence>
3.038

> <Coulomb>
20.324

> <VdW>
0.787

> <VdW6>
-7.686

> <VdW12>
8.473

> <Bond>
0.201

> <Angle>
1.089

> <Pdih>
1.748

> <Idih>
0.000

> <Tether>
0.000

$$$$
VeraChem MOL file


 26 25  0  0  0  0  0  0  0  0999 V2000     
   19.9267   18.4376   19.0849 C   0  0  0  0  0  0  0  0  0  0  0  0
   20.9095   18.6605   18.6494 H   0  0  0  0  0  0  0  0  0  0  0  0
   19.5851   17.4795   18.6721 H   0  0  0  0  0  0  0  0  0  0  0  0
   19.2237   19.2150   18.7585 H   0  0  0  0  0  0  0  0  0  0  0  0
   20.0038   18.3710   20.6250 C   0  0  0  0  0  0  0  0  0  0  0  0
   20.6909   17.5659   20.9206 H   0  0  0  0  0  0  0  0  0  0  0  0
   19.0139   18.1065   21.0198 H   0  0  0  0  0  0  0  0  0  0  0  0
   20.4795   19.7128   21.2303 C   0  0  0  0  0  0  0  0  0  0  0  0
   21.4336   19.9963   20.7649 H   0  0  0  0  0  0  0  0  0  0  0  0
   19.7649   20.5078   20.9760 H   0  0  0  0  0  0  0  0  0  0  0  0
   20.6775   19.6634   22.7653 C   0  0  0  0  0  0  0  0  0  0  0  0
   21.1156   20.6174   23.0902 H   0  0  0  0  0  0  0  0  0  0  0  0
   21.4129   18.8849   23.0087 H   0  0  0  0  0  0  0  0  0  0  0  0
   19.3623   19.4201   23.5489 C   0  0  0  0  0  0  0  0  0  0  0  0
   18.6078   20.1425   23.2099 H   0  0  0  0  0  0  0  0  0  0  0  0
   18.9664   18.4217   23.3241 H   0  0  0  0  0  0  0  0  0  0  0  0
   19.5397   19.5652   25.0758 C   0  0  1  0  0  0  0  0  0  0  0  0
   19.9495   20.5592   25.2803 H   0  0  0  0  0  0  0  0  0  0  0  0
   18.1814   19.4482   25.7856 C   0  0  0  0  0  0  0  0  0  0  0  0
   18.2954   19.5878   26.8677 H   0  0  0  0  0  0  0  0  0  0  0  0
   17.7268   18.4644   25.6139 H   0  0  0  0  0  0  0  0  0  0  0  0
   17.4847   20.2144   25.4231 H   0  0  0  0  0  0  0  0  0  0  0  0
   20.5173   18.5696   25.6383 N   0  3  0  0  0  0  0  0  0  0  0  0
   20.2019   17.6084   25.4838 H   0  0  0  0  0  0  0  0  0  0  0  0
   21.4394   18.6654   25.2048 H   0  0  0  0  0  0  0  0  0  0  0  0
   20.6391   18.6939   26.6473 H   0  0  0  0  0  0  0  0  0  0  0  0
  1  2  1  0  0  0  0
  1  3  1  0  0  0  0
  1  4  1  0  0  0  0
  1  5  1  0  0  0  0
  5  6  1  0  0  0  0
  5  7  1  0  0  0  0
  5  8  1  0  0  0  0
  8  9  1  0  0  0  0
  8 10  1  0  0  0  0
  8 11  1  0  0  0  0
 11 12  1  0  0  0  0
 11 13  1  0  0  0  0
 11 14  1  0  0  0  0
 14 15  1  0  0  0  0
 14 16  1  0  0  0  0
 14 17  1  0  0  0  0
 17 18  1  0  0  0  0
 17 19  1  0  0  0  0
 19 20  1  0  0  0  0
 19 21  1  0  0  0  0
 19 22  1  0  0  0  0
 17 23  1  0  0  0  0
 23 24  1  0  0  0  0
 23 25  1  0  0  0  0
 23 26  1  0  0  0  0
M  END
> <VM2 Rank>
7

> <Conf_Id>
262

> <Probability>
5.30

> <Sum Probability>
54.85

> <Delta G>
0.694

> <G>
24.407

> <E>
-8.262

> <-TS>
32.668

> <U+W>
-29.724

> <U>
24.276

> <W>
-53.999

> <W(PB)>
-56.312

> <W(SA)>
2.312

> <Valence>
3.269

> <Coulomb>
20.007

> <VdW>
1.000

> <VdW6>
-7.483

> <VdW12>
8.483

> <Bond>
0.211

> <Angle>
1.103

> <Pdih>
1.955

> <Idih>
0.000

> <Tether>
0.000

$$$$
VeraChem MOL file


 26 25  0  0  0  0  0  0  0  0999 V2000     
   19.8815   18.9330   18.9777 C   0  0  0  0  0  0  0  0  0  0  0  0
   19.2377   18.0472   18.8992 H   0  0  0  0  0  0  0  0  0  0  0  0
   19.4705   19.7080   18.3177 H   0  0  0  0  0  0  0  0  0  0  0  0
   20.8782   18.6658   18.6031 H   0  0  0  0  0  0  0  0  0  0  0  0
   19.9527   19.4393   20.4341 C   0  0  0  0  0  0  0  0  0  0  0  0
   18.9457   19.7349   20.7566 H   0  0  0  0  0  0  0  0  0  0  0  0
   20.5790   20.3413   20.4755 H   0  0  0  0  0  0  0  0  0  0  0  0
   20.5252   18.3611   21.3846 C   0  0  0  0  0  0  0  0  0  0  0  0
   19.8675   17.4809   21.3859 H   0  0  0  0  0  0  0  0  0  0  0  0
   21.4937   18.0205   20.9930 H   0  0  0  0  0  0  0  0  0  0  0  0
   20.7324   18.8572   22.8370 C   0  0  0  0  0  0  0  0  0  0  0  0
   21.3920   19.7360   22.8342 H   0  0  0  0  0  0  0  0  0  0  0  0
   21.2653   18.0727   23.3900 H   0  0  0  0  0  0  0  0  0  0  0  0
   19.4090   19.1993   23.5692 C   0  0  0  0  0  0  0  0  0  0  0  0
   18.8912   20.0002   23.0274 H   0  0  0  0  0  0  0  0  0  0  0  0
   18.7411   18.3278   23.5567 H   0  0  0  0  0  0  0  0  0  0  0  0
   19.6293   19.6630   25.0259 C   0  0  1  0  0  0  0  0  0  0  0  0
   20.3251   20.5076   25.0153 H   0  0  0  0  0  0  0  0  0  0  0  0
   18.3034   20.1384   25.6415 C   0  0  0  0  0  0  0  0  0  0  0  0
   17.8752   20.9624   25.0572 H   0  0  0  0  0  0  0  0  0  0  0  0
   18.4586   20.5023   26.6646 H   0  0  0  0  0  0  0  0  0  0  0  0
   17.5674   19.3253   25.6758 H   0  0  0  0  0  0  0  0  0  0  0  0
   20.2546   18.5969   25.8839 N   0  3  0  0  0  0  0  0  0  0  0  0
   19.6598   17.7659   25.9397 H   0  0  0  0  0  0  0  0  0  0  0  0
   21.1621   18.3024   25.5138 H   0  0  0  0  0  0  0  0  0  0  0  0
   20.4079   18.9287   26.8404 H   0  0  0  0  0  0  0  0  0  0  0  0
  1  2  1  0  0  0  0
  1  3  1  0  0  0  0
  1  4  1  0  0  0  0
  1  5  1  0  0  0  0
  5  6  1  0  0  0  0
  5  7  1  0  0  0  0
  5  8  1  0  0  0  0
  8  9  1  0  0  0  0
  8 10  1  0  0  0  0
  8 11  1  0  0  0  0
 11 12  1  0  0  0  0
 11 13  1  0  0  0  0
 11 14  1  0  0  0  0
 14 15  1  0  0  0  0
 14 16  1  0  0  0  0
 14 17  1  0  0  0  0
 17 18  1  0  0  0  0
 17 19  1  0  0  0  0
 19 20  1  0  0  0  0
 19 21  1  0  0  0  0
 19 22  1  0  0  0  0
 17 23  1  0  0  0  0
 23 24  1  0  0  0  0
 23 25  1  0  0  0  0
 23 26  1  0  0  0  0
M  END
> <VM2 Rank>
8

> <Conf_Id>
753

> <Probability>
4.39

> <Sum Probability>
59.24

> <Delta G>
0.807

> <G>
24.519

> <E>
-8.104

> <-TS>
32.623

> <U+W>
-29.565

> <U>
24.282

> <W>
-53.847

> <W(PB)>
-56.207

> <W(SA)>
2.360

> <Valence>
3.311

> <Coulomb>
19.887

> <VdW>
1.083

> <VdW6>
-7.444

> <VdW12>
8.527

> <Bond>
0.219

> <Angle>
1.167

> <Pdih>
1.926

> <Idih>
0.000

> <Tether>
0.000

$$$$
VeraChem MOL file


 26 25  0  0  0  0  0  0  0  0999 V2000     
   20.9637   19.5127   19.3554 C   0  0  0  0  0  0  0  0  0  0  0  0
   21.7725   18.7714   19.3951 H   0  0  0  0  0  0  0  0  0  0  0  0
   20.6617   19.6259   18.3061 H   0  0  0  0  0  0  0  0  0  0  0  0
   21.3656   20.4758   19.6962 H   0  0  0  0  0  0  0  0  0  0  0  0
   19.7653   19.0732   20.2230 C   0  0  0  0  0  0  0  0  0  0  0  0
   19.3640   18.1257   19.8367 H   0  0  0  0  0  0  0  0  0  0  0  0
   18.9607   19.8169   20.1369 H   0  0  0  0  0  0  0  0  0  0  0  0
   20.1638   18.9054   21.7059 C   0  0  0  0  0  0  0  0  0  0  0  0
   20.9668   18.1598   21.7867 H   0  0  0  0  0  0  0  0  0  0  0  0
   20.5716   19.8550   22.0773 H   0  0  0  0  0  0  0  0  0  0  0  0
   18.9621   18.4685   22.5775 C   0  0  0  0  0  0  0  0  0  0  0  0
   18.5323   17.5471   22.1607 H   0  0  0  0  0  0  0  0  0  0  0  0
   18.1669   19.2236   22.5214 H   0  0  0  0  0  0  0  0  0  0  0  0
   19.3436   18.2053   24.0573 C   0  0  0  0  0  0  0  0  0  0  0  0
   18.4475   17.8855   24.6056 H   0  0  0  0  0  0  0  0  0  0  0  0
   20.0391   17.3563   24.0898 H   0  0  0  0  0  0  0  0  0  0  0  0
   19.9904   19.4036   24.7916 C   0  0  1  0  0  0  0  0  0  0  0  0
   20.8838   19.7066   24.2378 H   0  0  0  0  0  0  0  0  0  0  0  0
   19.0392   20.6105   24.8790 C   0  0  0  0  0  0  0  0  0  0  0  0
   18.7984   21.0001   23.8831 H   0  0  0  0  0  0  0  0  0  0  0  0
   19.5031   21.4283   25.4440 H   0  0  0  0  0  0  0  0  0  0  0  0
   18.1008   20.3406   25.3792 H   0  0  0  0  0  0  0  0  0  0  0  0
   20.4599   19.0089   26.1643 N   0  3  0  0  0  0  0  0  0  0  0  0
   19.6792   18.7128   26.7562 H   0  0  0  0  0  0  0  0  0  0  0  0
   21.1281   18.2338   26.1264 H   0  0  0  0  0  0  0  0  0  0  0  0
   20.9245   19.7879   26.6394 H   0  0  0  0  0  0  0  0  0  0  0  0
  1  2  1  0  0  0  0
  1  3  1  0  0  0  0
  1  4  1  0  0  0  0
  1  5  1  0  0  0  0
  5  6  1  0  0  0  0
  5  7  1  0  0  0  0
  5  8  1  0  0  0  0
  8  9  1  0  0  0  0
  8 10  1  0  0  0  0
  8 11  1  0  0  0  0
 11 12  1  0  0  0  0
 11 13  1  0  0  0  0
 11 14  1  0  0  0  0
 14 15  1  0  0  0  0
 14 16  1  0  0  0  0
 14 17  1  0  0  0  0
 17 18  1  0  0  0  0
 17 19  1  0  0  0  0
 19 20  1  0  0  0  0
 19 21  1  0  0  0  0
 19 22  1  0  0  0  0
 17 23  1  0  0  0  0
 23 24  1  0  0  0  0
 23 25  1  0  0  0  0
 23 26  1  0  0  0  0
M  END
> <VM2 Rank>
9

> <Conf_Id>
1021

> <Probability>
3.72

> <Sum Probability>
62.96

> <Delta G>
0.906

> <G>
24.618

> <E>
-8.224

> <-TS>
32.842

> <U+W>
-29.686

> <U>
24.336

> <W>
-54.021

> <W(PB)>
-56.336

> <W(SA)>
2.315

> <Valence>
3.530

> <Coulomb>
19.945

> <VdW>
0.861

> <VdW6>
-7.915

> <VdW12>
8.775

> <Bond>
0.213

> <Angle>
1.415

> <Pdih>
1.903

> <Idih>
0.000

> <Tether>
0.000

$$$$
VeraChem MOL file


 26 25  0  0  0  0  0  0  0  0999 V2000     
   20.8065   19.7427   19.5402 C   0  0  0  0  0  0  0  0  0  0  0  0
   20.8233   20.6353   20.1778 H   0  0  0  0  0  0  0  0  0  0  0  0
   21.7814   19.2443   19.6194 H   0  0  0  0  0  0  0  0  0  0  0  0
   20.6858   20.0809   18.5029 H   0  0  0  0  0  0  0  0  0  0  0  0
   19.6590   18.7851   19.9336 C   0  0  0  0  0  0  0  0  0  0  0  0
   19.6068   17.9728   19.1952 H   0  0  0  0  0  0  0  0  0  0  0  0
   18.6984   19.3157   19.8751 H   0  0  0  0  0  0  0  0  0  0  0  0
   19.8302   18.1656   21.3417 C   0  0  0  0  0  0  0  0  0  0  0  0
   19.0356   17.4221   21.4945 H   0  0  0  0  0  0  0  0  0  0  0  0
   20.7806   17.6160   21.3868 H   0  0  0  0  0  0  0  0  0  0  0  0
   19.7736   19.2075   22.4848 C   0  0  0  0  0  0  0  0  0  0  0  0
   18.8479   19.7901   22.3911 H   0  0  0  0  0  0  0  0  0  0  0  0
   20.6093   19.9132   22.3885 H   0  0  0  0  0  0  0  0  0  0  0  0
   19.8384   18.5328   23.8772 C   0  0  0  0  0  0  0  0  0  0  0  0
   18.9670   17.8785   24.0130 H   0  0  0  0  0  0  0  0  0  0  0  0
   20.7232   17.8834   23.9094 H   0  0  0  0  0  0  0  0  0  0  0  0
   19.9242   19.5345   25.0516 C   0  0  1  0  0  0  0  0  0  0  0  0
   20.7749   20.1996   24.8737 H   0  0  0  0  0  0  0  0  0  0  0  0
   18.6526   20.3930   25.1765 C   0  0  0  0  0  0  0  0  0  0  0  0
   18.5131   21.0301   24.2956 H   0  0  0  0  0  0  0  0  0  0  0  0
   18.7182   21.0559   26.0481 H   0  0  0  0  0  0  0  0  0  0  0  0
   17.7600   19.7658   25.2928 H   0  0  0  0  0  0  0  0  0  0  0  0
   20.2034   18.8268   26.3485 N   0  3  0  0  0  0  0  0  0  0  0  0
   21.0701   18.2833   26.3029 H   0  0  0  0  0  0  0  0  0  0  0  0
   20.3008   19.4895   27.1230 H   0  0  0  0  0  0  0  0  0  0  0  0
   19.4481   18.1809   26.5929 H   0  0  0  0  0  0  0  0  0  0  0  0
  1  2  1  0  0  0  0
  1  3  1  0  0  0  0
  1  4  1  0  0  0  0
  1  5  1  0  0  0  0
  5  6  1  0  0  0  0
  5  7  1  0  0  0  0
  5  8  1  0  0  0  0
  8  9  1  0  0  0  0
  8 10  1  0  0  0  0
  8 11  1  0  0  0  0
 11 12  1  0  0  0  0
 11 13  1  0  0  0  0
 11 14  1  0  0  0  0
 14 15  1  0  0  0  0
 14 16  1  0  0  0  0
 14 17  1  0  0  0  0
 17 18  1  0  0  0  0
 17 19  1  0  0  0  0
 19 20  1  0  0  0  0
 19 21  1  0  0  0  0
 19 22  1  0  0  0  0
 17 23  1  0  0  0  0
 23 24  1  0  0  0  0
 23 25  1  0  0  0  0
 23 26  1  0  0  0  0
M  END
> <VM2 Rank>
10

> <Conf_Id>
1087

> <Probability>
2.98

> <Sum Probability>
65.93

> <Delta G>
1.038

> <G>
24.750

> <E>
-7.930

> <-TS>
32.681

> <U+W>
-29.392

> <U>
24.442

> <W>
-53.835

> <W(PB)>
-56.129

> <W(SA)>
2.295

> <Valence>
3.781

> <Coulomb>
19.492

> <VdW>
1.170

> <VdW6>
-7.583

> <VdW12>
8.753

> <Bond>
0.218

> <Angle>
1.390

> <Pdih>
2.173

> <Idih>
0.000

> <Tether>
0.000

$$$$
VeraChem MOL file


 26 25  0  0  0  0  0  0  0  0999 V2000     
   19.3587   19.5419   19.4492 C   0  0  0  0  0  0  0  0  0  0  0  0
   19.5224   19.9143   18.4297 H   0  0  0  0  0  0  0  0  0  0  0  0
   18.5545   18.7958   19.4088 H   0  0  0  0  0  0  0  0  0  0  0  0
   19.0138   20.3875   20.0571 H   0  0  0  0  0  0  0  0  0  0  0  0
   20.6590   18.9276   20.0156 C   0  0  0  0  0  0  0  0  0  0  0  0
   21.4375   19.7009   20.0758 H   0  0  0  0  0  0  0  0  0  0  0  0
   21.0303   18.1722   19.3089 H   0  0  0  0  0  0  0  0  0  0  0  0
   20.4736   18.2621   21.4008 C   0  0  0  0  0  0  0  0  0  0  0  0
   19.7086   17.4765   21.3309 H   0  0  0  0  0  0  0  0  0  0  0  0
   21.4111   17.7572   21.6720 H   0  0  0  0  0  0  0  0  0  0  0  0
   20.0943   19.2619   22.5198 C   0  0  0  0  0  0  0  0  0  0  0  0
   19.1274   19.7224   22.2833 H   0  0  0  0  0  0  0  0  0  0  0  0
   20.8366   20.0713   22.5551 H   0  0  0  0  0  0  0  0  0  0  0  0
   20.0176   18.5705   23.9035 C   0  0  0  0  0  0  0  0  0  0  0  0
   19.2330   17.8023   23.8903 H   0  0  0  0  0  0  0  0  0  0  0  0
   20.9644   18.0450   24.0850 H   0  0  0  0  0  0  0  0  0  0  0  0
   19.7696   19.5474   25.0758 C   0  0  1  0  0  0  0  0  0  0  0  0
   20.5381   20.3259   25.0420 H   0  0  0  0  0  0  0  0  0  0  0  0
   18.3887   20.2220   24.9882 C   0  0  0  0  0  0  0  0  0  0  0  0
   18.3099   20.8561   24.0977 H   0  0  0  0  0  0  0  0  0  0  0  0
   18.2173   20.8657   25.8597 H   0  0  0  0  0  0  0  0  0  0  0  0
   17.5844   19.4767   24.9526 H   0  0  0  0  0  0  0  0  0  0  0  0
   19.9265   18.8546   26.4010 N   0  3  0  0  0  0  0  0  0  0  0  0
   19.2377   18.1065   26.5164 H   0  0  0  0  0  0  0  0  0  0  0  0
   20.8555   18.4353   26.5001 H   0  0  0  0  0  0  0  0  0  0  0  0
   19.8027   19.5064   27.1810 H   0  0  0  0  0  0  0  0  0  0  0  0
  1  2  1  0  0  0  0
  1  3  1  0  0  0  0
  1  4  1  0  0  0  0
  1  5  1  0  0  0  0
  5  6  1  0  0  0  0
  5  7  1  0  0  0  0
  5  8  1  0  0  0  0
  8  9  1  0  0  0  0
  8 10  1  0  0  0  0
  8 11  1  0  0  0  0
 11 12  1  0  0  0  0
 11 13  1  0  0  0  0
 11 14  1  0  0  0  0
 14 15  1  0  0  0  0
 14 16  1  0  0  0  0
 14 17  1  0  0  0  0
 17 18  1  0  0  0  0
 17 19  1  0  0  0  0
 19 20  1  0  0  0  0
 19 21  1  0  0  0  0
 19 22  1  0  0  0  0
 17 23  1  0  0  0  0
 23 24  1  0  0  0  0
 23 25  1  0  0  0  0
 23 26  1  0  0  0  0
M  END
> <VM2 Rank>
11

> <Conf_Id>
751

> <Probability>
2.50

> <Sum Probability>
68.43

> <Delta G>
1.142

> <G>
24.854

> <E>
-7.820

> <-TS>
32.674

> <U+W>
-29.282

> <U>
24.454

> <W>
-53.736

> <W(PB)>
-56.066

> <W(SA)>
2.330

> <Valence>
3.783

> <Coulomb>
19.491

> <VdW>
1.181

> <VdW6>
-7.595

> <VdW12>
8.776

> <Bond>
0.221

> <Angle>
1.392

> <Pdih>
2.171

> <Idih>
0.000

> <Tether>
0.000

$$$$
VeraChem MOL file


 26 25  0  0  0  0  0  0  0  0999 V2000     
   20.5935   17.7670   19.9358 C   0  0  0  0  0  0  0  0  0  0  0  0
   20.3891   17.2485   18.9902 H   0  0  0  0  0  0  0  0  0  0  0  0
   21.6695   17.9805   19.9757 H   0  0  0  0  0  0  0  0  0  0  0  0
   20.3493   17.0743   20.7506 H   0  0  0  0  0  0  0  0  0  0  0  0
   19.7648   19.0684   20.0288 C   0  0  0  0  0  0  0  0  0  0  0  0
   18.6931   18.8255   20.0191 H   0  0  0  0  0  0  0  0  0  0  0  0
   19.9512   19.6716   19.1292 H   0  0  0  0  0  0  0  0  0  0  0  0
   20.0972   19.9223   21.2763 C   0  0  0  0  0  0  0  0  0  0  0  0
   21.1647   20.1820   21.2686 H   0  0  0  0  0  0  0  0  0  0  0  0
   19.5477   20.8712   21.2052 H   0  0  0  0  0  0  0  0  0  0  0  0
   19.7376   19.2287   22.6122 C   0  0  0  0  0  0  0  0  0  0  0  0
   20.3348   18.3154   22.7236 H   0  0  0  0  0  0  0  0  0  0  0  0
   18.6836   18.9230   22.5835 H   0  0  0  0  0  0  0  0  0  0  0  0
   19.9862   20.1639   23.8244 C   0  0  0  0  0  0  0  0  0  0  0  0
   21.0298   20.5049   23.8083 H   0  0  0  0  0  0  0  0  0  0  0  0
   19.3717   21.0677   23.7178 H   0  0  0  0  0  0  0  0  0  0  0  0
   19.7005   19.5301   25.2066 C   0  0  1  0  0  0  0  0  0  0  0  0
   19.9399   20.2825   25.9645 H   0  0  0  0  0  0  0  0  0  0  0  0
   18.2178   19.1554   25.3761 C   0  0  0  0  0  0  0  0  0  0  0  0
   18.0180   18.8379   26.4069 H   0  0  0  0  0  0  0  0  0  0  0  0
   17.9283   18.3332   24.7109 H   0  0  0  0  0  0  0  0  0  0  0  0
   17.5712   20.0154   25.1620 H   0  0  0  0  0  0  0  0  0  0  0  0
   20.5904   18.3521   25.4939 N   0  3  0  0  0  0  0  0  0  0  0  0
   20.4208   17.5885   24.8348 H   0  0  0  0  0  0  0  0  0  0  0  0
   21.5806   18.6042   25.4264 H   0  0  0  0  0  0  0  0  0  0  0  0
   20.4322   17.9850   26.4365 H   0  0  0  0  0  0  0  0  0  0  0  0
  1  2  1  0  0  0  0
  1  3  1  0  0  0  0
  1  4  1  0  0  0  0
  1  5  1  0  0  0  0
  5  6  1  0  0  0  0
  5  7  1  0  0  0  0
  5  8  1  0  0  0  0
  8  9  1  0  0  0  0
  8 10  1  0  0  0  0
  8 11  1  0  0  0  0
 11 12  1  0  0  0  0
 11 13  1  0  0  0  0
 11 14  1  0  0  0  0
 14 15  1  0  0  0  0
 14 16  1  0  0  0  0
 14 17  1  0  0  0  0
 17 18  1  0  0  0  0
 17 19  1  0  0  0  0
 19 20  1  0  0  0  0
 19 21  1  0  0  0  0
 19 22  1  0  0  0  0
 17 23  1  0  0  0  0
 23 24  1  0  0  0  0
 23 25  1  0  0  0  0
 23 26  1  0  0  0  0
M  END
> <VM2 Rank>
12

> <Conf_Id>
1106

> <Probability>
2.41

> <Sum Probability>
70.84

> <Delta G>
1.165

> <G>
24.877

> <E>
-7.930

> <-TS>
32.807

> <U+W>
-29.392

> <U>
24.790

> <W>
-54.182

> <W(PB)>
-56.462

> <W(SA)>
2.279

> <Valence>
3.751

> <Coulomb>
19.894

> <VdW>
1.145

> <VdW6>
-8.074

> <VdW12>
9.219

> <Bond>
0.243

> <Angle>
1.440

> <Pdih>
2.068

> <Idih>
0.000

> <Tether>
0.000

$$$$
VeraChem MOL file


 26 25  0  0  0  0  0  0  0  0999 V2000     
   20.2616   18.3071   19.1274 C   0  0  0  0  0  0  0  0  0  0  0  0
   19.8381   17.3928   18.6918 H   0  0  0  0  0  0  0  0  0  0  0  0
   19.9745   19.1501   18.4853 H   0  0  0  0  0  0  0  0  0  0  0  0
   21.3554   18.2164   19.1039 H   0  0  0  0  0  0  0  0  0  0  0  0
   19.7529   18.5096   20.5704 C   0  0  0  0  0  0  0  0  0  0  0  0
   20.0231   17.6303   21.1701 H   0  0  0  0  0  0  0  0  0  0  0  0
   18.6555   18.5670   20.5649 H   0  0  0  0  0  0  0  0  0  0  0  0
   20.3401   19.7913   21.2073 C   0  0  0  0  0  0  0  0  0  0  0  0
   21.4348   19.7118   21.2575 H   0  0  0  0  0  0  0  0  0  0  0  0
   20.1235   20.6471   20.5529 H   0  0  0  0  0  0  0  0  0  0  0  0
   19.7755   20.0954   22.6167 C   0  0  0  0  0  0  0  0  0  0  0  0
   18.6849   20.2039   22.5496 H   0  0  0  0  0  0  0  0  0  0  0  0
   20.1654   21.0686   22.9459 H   0  0  0  0  0  0  0  0  0  0  0  0
   20.1430   19.0209   23.6725 C   0  0  0  0  0  0  0  0  0  0  0  0
   19.6466   18.0719   23.4333 H   0  0  0  0  0  0  0  0  0  0  0  0
   21.2233   18.8321   23.6185 H   0  0  0  0  0  0  0  0  0  0  0  0
   19.7891   19.4300   25.1204 C   0  0  1  0  0  0  0  0  0  0  0  0
   20.2631   20.3939   25.3301 H   0  0  0  0  0  0  0  0  0  0  0  0
   18.2707   19.5794   25.3248 C   0  0  0  0  0  0  0  0  0  0  0  0
   17.8632   20.3888   24.7081 H   0  0  0  0  0  0  0  0  0  0  0  0
   18.0437   19.8226   26.3701 H   0  0  0  0  0  0  0  0  0  0  0  0
   17.7426   18.6525   25.0688 H   0  0  0  0  0  0  0  0  0  0  0  0
   20.3551   18.4542   26.1145 N   0  3  0  0  0  0  0  0  0  0  0  0
   21.3719   18.3716   26.0253 H   0  0  0  0  0  0  0  0  0  0  0  0
   20.1570   18.7431   27.0766 H   0  0  0  0  0  0  0  0  0  0  0  0
   19.9585   17.5191   25.9890 H   0  0  0  0  0  0  0  0  0  0  0  0
  1  2  1  0  0  0  0
  1  3  1  0  0  0  0
  1  4  1  0  0  0  0
  1  5  1  0  0  0  0
  5  6  1  0  0  0  0
  5  7  1  0  0  0  0
  5  8  1  0  0  0  0
  8  9  1  0  0  0  0
  8 10  1  0  0  0  0
  8 11  1  0  0  0  0
 11 12  1  0  0  0  0
 11 13  1  0  0  0  0
 11 14  1  0  0  0  0
 14 15  1  0  0  0  0
 14 16  1  0  0  0  0
 14 17  1  0  0  0  0
 17 18  1  0  0  0  0
 17 19  1  0  0  0  0
 19 20  1  0  0  0  0
 19 21  1  0  0  0  0
 19 22  1  0  0  0  0
 17 23  1  0  0  0  0
 23 24  1  0  0  0  0
 23 25  1  0  0  0  0
 23 26  1  0  0  0  0
M  END
> <VM2 Rank>
13

> <Conf_Id>
456

> <Probability>
2.40

> <Sum Probability>
73.25

> <Delta G>
1.165

> <G>
24.877

> <E>
-7.823

> <-TS>
32.700

> <U+W>
-29.285

> <U>
24.614

> <W>
-53.899

> <W(PB)>
-56.206

> <W(SA)>
2.307

> <Valence>
3.779

> <Coulomb>
19.717

> <VdW>
1.118

> <VdW6>
-7.653

> <VdW12>
8.772

> <Bond>
0.222

> <Angle>
1.351

> <Pdih>
2.206

> <Idih>
0.000

> <Tether>
0.000

$$$$
VeraChem MOL file


 26 25  0  0  0  0  0  0  0  0999 V2000     
   19.3885   18.1238   19.7280 C   0  0  0  0  0  0  0  0  0  0  0  0
   18.9718   17.4802   20.5126 H   0  0  0  0  0  0  0  0  0  0  0  0
   18.6337   18.8749   19.4613 H   0  0  0  0  0  0  0  0  0  0  0  0
   19.5634   17.4956   18.8450 H   0  0  0  0  0  0  0  0  0  0  0  0
   20.7042   18.7952   20.1829 C   0  0  0  0  0  0  0  0  0  0  0  0
   21.1452   19.3252   19.3271 H   0  0  0  0  0  0  0  0  0  0  0  0
   21.4311   18.0242   20.4743 H   0  0  0  0  0  0  0  0  0  0  0  0
   20.5133   19.8006   21.3442 C   0  0  0  0  0  0  0  0  0  0  0  0
   21.4709   20.3078   21.5262 H   0  0  0  0  0  0  0  0  0  0  0  0
   19.8029   20.5815   21.0398 H   0  0  0  0  0  0  0  0  0  0  0  0
   20.0323   19.1407   22.6589 C   0  0  0  0  0  0  0  0  0  0  0  0
   20.7188   18.3263   22.9250 H   0  0  0  0  0  0  0  0  0  0  0  0
   19.0449   18.6903   22.4997 H   0  0  0  0  0  0  0  0  0  0  0  0
   19.9548   20.1690   23.8175 C   0  0  0  0  0  0  0  0  0  0  0  0
   20.9353   20.6470   23.9421 H   0  0  0  0  0  0  0  0  0  0  0  0
   19.2597   20.9733   23.5425 H   0  0  0  0  0  0  0  0  0  0  0  0
   19.5215   19.5825   25.1821 C   0  0  1  0  0  0  0  0  0  0  0  0
   19.5398   20.4015   25.9079 H   0  0  0  0  0  0  0  0  0  0  0  0
   18.0870   19.0270   25.1447 C   0  0  0  0  0  0  0  0  0  0  0  0
   18.0126   18.1367   24.5092 H   0  0  0  0  0  0  0  0  0  0  0  0
   17.3866   19.7810   24.7645 H   0  0  0  0  0  0  0  0  0  0  0  0
   17.7582   18.7467   26.1530 H   0  0  0  0  0  0  0  0  0  0  0  0
   20.4863   18.5493   25.6957 N   0  3  0  0  0  0  0  0  0  0  0  0
   21.4363   18.9248   25.7662 H   0  0  0  0  0  0  0  0  0  0  0  0
   20.2189   18.2177   26.6268 H   0  0  0  0  0  0  0  0  0  0  0  0
   20.5219   17.7345   25.0784 H   0  0  0  0  0  0  0  0  0  0  0  0
  1  2  1  0  0  0  0
  1  3  1  0  0  0  0
  1  4  1  0  0  0  0
  1  5  1  0  0  0  0
  5  6  1  0  0  0  0
  5  7  1  0  0  0  0
  5  8  1  0  0  0  0
  8  9  1  0  0  0  0
  8 10  1  0  0  0  0
  8 11  1  0  0  0  0
 11 12  1  0  0  0  0
 11 13  1  0  0  0  0
 11 14  1  0  0  0  0
 14 15  1  0  0  0  0
 14 16  1  0  0  0  0
 14 17  1  0  0  0  0
 17 18  1  0  0  0  0
 17 19  1  0  0  0  0
 19 20  1  0  0  0  0
 19 21  1  0  0  0  0
 19 22  1  0  0  0  0
 17 23  1  0  0  0  0
 23 24  1  0  0  0  0
 23 25  1  0  0  0  0
 23 26  1  0  0  0  0
M  END
> <VM2 Rank>
14

> <Conf_Id>
494

> <Probability>
2.39

> <Sum Probability>
75.64

> <Delta G>
1.169

> <G>
24.881

> <E>
-7.927

> <-TS>
32.808

> <U+W>
-29.389

> <U>
24.690

> <W>
-54.079

> <W(PB)>
-56.373

> <W(SA)>
2.294

> <Valence>
3.755

> <Coulomb>
19.785

> <VdW>
1.150

> <VdW6>
-8.077

> <VdW12>
9.227

> <Bond>
0.244

> <Angle>
1.443

> <Pdih>
2.068

> <Idih>
0.000

> <Tether>
0.000

$$$$
VeraChem MOL file


 26 25  0  0  0  0  0  0  0  0999 V2000     
   20.5166   18.4102   19.0959 C   0  0  0  0  0  0  0  0  0  0  0  0
   20.2066   19.2542   18.4660 H   0  0  0  0  0  0  0  0  0  0  0  0
   21.4708   18.0323   18.7064 H   0  0  0  0  0  0  0  0  0  0  0  0
   19.7698   17.6124   18.9904 H   0  0  0  0  0  0  0  0  0  0  0  0
   20.6623   18.8416   20.5707 C   0  0  0  0  0  0  0  0  0  0  0  0
   21.4354   19.6188   20.6476 H   0  0  0  0  0  0  0  0  0  0  0  0
   21.0134   17.9831   21.1581 H   0  0  0  0  0  0  0  0  0  0  0  0
   19.3270   19.3739   21.1429 C   0  0  0  0  0  0  0  0  0  0  0  0
   18.9540   20.1729   20.4872 H   0  0  0  0  0  0  0  0  0  0  0  0
   18.5695   18.5783   21.1192 H   0  0  0  0  0  0  0  0  0  0  0  0
   19.4443   19.9376   22.5808 C   0  0  0  0  0  0  0  0  0  0  0  0
   18.4911   20.4211   22.8298 H   0  0  0  0  0  0  0  0  0  0  0  0
   20.2078   20.7273   22.6049 H   0  0  0  0  0  0  0  0  0  0  0  0
   19.7731   18.8581   23.6451 C   0  0  0  0  0  0  0  0  0  0  0  0
   19.0035   18.0751   23.6290 H   0  0  0  0  0  0  0  0  0  0  0  0
   20.7190   18.3710   23.3797 H   0  0  0  0  0  0  0  0  0  0  0  0
   19.9133   19.4195   25.0790 C   0  0  1  0  0  0  0  0  0  0  0  0
   20.6402   20.2373   25.0578 H   0  0  0  0  0  0  0  0  0  0  0  0
   18.5811   19.9648   25.6250 C   0  0  0  0  0  0  0  0  0  0  0  0
   18.6975   20.2992   26.6633 H   0  0  0  0  0  0  0  0  0  0  0  0
   17.7982   19.1966   25.6015 H   0  0  0  0  0  0  0  0  0  0  0  0
   18.2341   20.8278   25.0455 H   0  0  0  0  0  0  0  0  0  0  0  0
   20.4703   18.3824   26.0146 N   0  3  0  0  0  0  0  0  0  0  0  0
   21.3801   18.0364   25.6964 H   0  0  0  0  0  0  0  0  0  0  0  0
   20.6020   18.7608   26.9569 H   0  0  0  0  0  0  0  0  0  0  0  0
   19.8453   17.5758   26.0945 H   0  0  0  0  0  0  0  0  0  0  0  0
  1  2  1  0  0  0  0
  1  3  1  0  0  0  0
  1  4  1  0  0  0  0
  1  5  1  0  0  0  0
  5  6  1  0  0  0  0
  5  7  1  0  0  0  0
  5  8  1  0  0  0  0
  8  9  1  0  0  0  0
  8 10  1  0  0  0  0
  8 11  1  0  0  0  0
 11 12  1  0  0  0  0
 11 13  1  0  0  0  0
 11 14  1  0  0  0  0
 14 15  1  0  0  0  0
 14 16  1  0  0  0  0
 14 17  1  0  0  0  0
 17 18  1  0  0  0  0
 17 19  1  0  0  0  0
 19 20  1  0  0  0  0
 19 21  1  0  0  0  0
 19 22  1  0  0  0  0
 17 23  1  0  0  0  0
 23 24  1  0  0  0  0
 23 25  1  0  0  0  0
 23 26  1  0  0  0  0
M  END
> <VM2 Rank>
15

> <Conf_Id>
1072

> <Probability>
2.27

> <Sum Probability>
77.90

> <Delta G>
1.201

> <G>
24.913

> <E>
-7.677

> <-TS>
32.589

> <U+W>
-29.138

> <U>
24.912

> <W>
-54.050

> <W(PB)>
-56.345

> <W(SA)>
2.294

> <Valence>
3.916

> <Coulomb>
19.768

> <VdW>
1.228

> <VdW6>
-7.563

> <VdW12>
8.791

> <Bond>
0.234

> <Angle>
1.481

> <Pdih>
2.202

> <Idih>
0.000

> <Tether>
0.000

$$$$
VeraChem MOL file


 26 25  0  0  0  0  0  0  0  0999 V2000     
   20.2885   19.1207   19.0370 C   0  0  0  0  0  0  0  0  0  0  0  0
   21.3855   19.1049   18.9955 H   0  0  0  0  0  0  0  0  0  0  0  0
   19.9179   18.1618   18.6518 H   0  0  0  0  0  0  0  0  0  0  0  0
   19.9370   19.9127   18.3630 H   0  0  0  0  0  0  0  0  0  0  0  0
   19.7918   19.3702   20.4769 C   0  0  0  0  0  0  0  0  0  0  0  0
   18.6936   19.4098   20.4814 H   0  0  0  0  0  0  0  0  0  0  0  0
   20.1478   20.3539   20.8104 H   0  0  0  0  0  0  0  0  0  0  0  0
   20.2790   18.2679   21.4469 C   0  0  0  0  0  0  0  0  0  0  0  0
   19.9810   17.2873   21.0506 H   0  0  0  0  0  0  0  0  0  0  0  0
   21.3772   18.2644   21.4822 H   0  0  0  0  0  0  0  0  0  0  0  0
   19.7131   18.4095   22.8814 C   0  0  0  0  0  0  0  0  0  0  0  0
   20.0148   17.5241   23.4560 H   0  0  0  0  0  0  0  0  0  0  0  0
   18.6161   18.3917   22.8370 H   0  0  0  0  0  0  0  0  0  0  0  0
   20.1984   19.6921   23.6106 C   0  0  0  0  0  0  0  0  0  0  0  0
   21.2932   19.7496   23.5512 H   0  0  0  0  0  0  0  0  0  0  0  0
   19.8190   20.5797   23.0894 H   0  0  0  0  0  0  0  0  0  0  0  0
   19.7828   19.7900   25.0977 C   0  0  1  0  0  0  0  0  0  0  0  0
   20.1931   20.7264   25.4885 H   0  0  0  0  0  0  0  0  0  0  0  0
   18.2545   19.8447   25.2676 C   0  0  0  0  0  0  0  0  0  0  0  0
   17.7807   18.8984   24.9809 H   0  0  0  0  0  0  0  0  0  0  0  0
   17.8225   20.6455   24.6548 H   0  0  0  0  0  0  0  0  0  0  0  0
   17.9918   20.0476   26.3131 H   0  0  0  0  0  0  0  0  0  0  0  0
   20.3798   18.6930   25.9359 N   0  3  0  0  0  0  0  0  0  0  0  0
   20.0352   17.7743   25.6468 H   0  0  0  0  0  0  0  0  0  0  0  0
   21.4009   18.6769   25.8618 H   0  0  0  0  0  0  0  0  0  0  0  0
   20.1471   18.8102   26.9261 H   0  0  0  0  0  0  0  0  0  0  0  0
  1  2  1  0  0  0  0
  1  3  1  0  0  0  0
  1  4  1  0  0  0  0
  1  5  1  0  0  0  0
  5  6  1  0  0  0  0
  5  7  1  0  0  0  0
  5  8  1  0  0  0  0
  8  9  1  0  0  0  0
  8 10  1  0  0  0  0
  8 11  1  0  0  0  0
 11 12  1  0  0  0  0
 11 13  1  0  0  0  0
 11 14  1  0  0  0  0
 14 15  1  0  0  0  0
 14 16  1  0  0  0  0
 14 17  1  0  0  0  0
 17 18  1  0  0  0  0
 17 19  1  0  0  0  0
 19 20  1  0  0  0  0
 19 21  1  0  0  0  0
 19 22  1  0  0  0  0
 17 23  1  0  0  0  0
 23 24  1  0  0  0  0
 23 25  1  0  0  0  0
 23 26  1  0  0  0  0
M  END
> <VM2 Rank>
16

> <Conf_Id>
1049

> <Probability>
1.94

> <Sum Probability>
79.84

> <Delta G>
1.293

> <G>
25.005

> <E>
-7.804

> <-TS>
32.809

> <U+W>
-29.266

> <U>
24.725

> <W>
-53.991

> <W(PB)>
-56.300

> <W(SA)>
2.309

> <Valence>
3.779

> <Coulomb>
19.804

> <VdW>
1.142

> <VdW6>
-8.104

> <VdW12>
9.246

> <Bond>
0.254

> <Angle>
1.437

> <Pdih>
2.089

> <Idih>
0.000

> <Tether>
0.000

$$$$
VeraChem MOL file


 26 25  0  0  0  0  0  0  0  0999 V2000     
   20.1936   20.0427   19.9068 C   0  0  0  0  0  0  0  0  0  0  0  0
   21.2226   19.9156   19.5463 H   0  0  0  0  0  0  0  0  0  0  0  0
   19.6088   20.5017   19.0991 H   0  0  0  0  0  0  0  0  0  0  0  0
   20.2076   20.7487   20.7465 H   0  0  0  0  0  0  0  0  0  0  0  0
   19.5776   18.6863   20.3177 C   0  0  0  0  0  0  0  0  0  0  0  0
   19.4742   18.0592   19.4211 H   0  0  0  0  0  0  0  0  0  0  0  0
   18.5574   18.8407   20.6934 H   0  0  0  0  0  0  0  0  0  0  0  0
   20.4241   17.9151   21.3626 C   0  0  0  0  0  0  0  0  0  0  0  0
   19.9305   16.9581   21.5809 H   0  0  0  0  0  0  0  0  0  0  0  0
   21.3923   17.6571   20.9116 H   0  0  0  0  0  0  0  0  0  0  0  0
   20.6826   18.6647   22.6954 C   0  0  0  0  0  0  0  0  0  0  0  0
   21.2692   19.5734   22.5057 H   0  0  0  0  0  0  0  0  0  0  0  0
   21.3135   18.0235   23.3248 H   0  0  0  0  0  0  0  0  0  0  0  0
   19.3856   19.0293   23.4625 C   0  0  0  0  0  0  0  0  0  0  0  0
   18.7711   19.6902   22.8387 H   0  0  0  0  0  0  0  0  0  0  0  0
   18.7921   18.1230   23.6415 H   0  0  0  0  0  0  0  0  0  0  0  0
   19.6599   19.7444   24.8035 C   0  0  1  0  0  0  0  0  0  0  0  0
   20.2827   20.6216   24.6030 H   0  0  0  0  0  0  0  0  0  0  0  0
   18.3416   20.2227   25.4330 C   0  0  0  0  0  0  0  0  0  0  0  0
   17.6778   19.3776   25.6546 H   0  0  0  0  0  0  0  0  0  0  0  0
   17.8116   20.9054   24.7572 H   0  0  0  0  0  0  0  0  0  0  0  0
   18.5315   20.7628   26.3688 H   0  0  0  0  0  0  0  0  0  0  0  0
   20.4230   18.8829   25.7725 N   0  3  0  0  0  0  0  0  0  0  0  0
   21.3257   18.5941   25.3865 H   0  0  0  0  0  0  0  0  0  0  0  0
   20.6098   19.3798   26.6480 H   0  0  0  0  0  0  0  0  0  0  0  0
   19.9021   18.0338   26.0074 H   0  0  0  0  0  0  0  0  0  0  0  0
  1  2  1  0  0  0  0
  1  3  1  0  0  0  0
  1  4  1  0  0  0  0
  1  5  1  0  0  0  0
  5  6  1  0  0  0  0
  5  7  1  0  0  0  0
  5  8  1  0  0  0  0
  8  9  1  0  0  0  0
  8 10  1  0  0  0  0
  8 11  1  0  0  0  0
 11 12  1  0  0  0  0
 11 13  1  0  0  0  0
 11 14  1  0  0  0  0
 14 15  1  0  0  0  0
 14 16  1  0  0  0  0
 14 17  1  0  0  0  0
 17 18  1  0  0  0  0
 17 19  1  0  0  0  0
 19 20  1  0  0  0  0
 19 21  1  0  0  0  0
 19 22  1  0  0  0  0
 17 23  1  0  0  0  0
 23 24  1  0  0  0  0
 23 25  1  0  0  0  0
 23 26  1  0  0  0  0
M  END
> <VM2 Rank>
17

> <Conf_Id>
270

> <Probability>
1.91

> <Sum Probability>
81.75

> <Delta G>
1.303

> <G>
25.016

> <E>
-7.959

> <-TS>
32.975

> <U+W>
-29.421

> <U>
24.692

> <W>
-54.113

> <W(PB)>
-56.397

> <W(SA)>
2.284

> <Valence>
3.727

> <Coulomb>
19.918

> <VdW>
1.047

> <VdW6>
-8.393

> <VdW12>
9.440

> <Bond>
0.259

> <Angle>
1.567

> <Pdih>
1.900

> <Idih>
0.000

> <Tether>
0.000

$$$$
VeraChem MOL file


 26 25  0  0  0  0  0  0  0  0999 V2000     
   20.6672   19.8500   19.6716 C   0  0  0  0  0  0  0  0  0  0  0  0
   20.1128   20.5129   18.9947 H   0  0  0  0  0  0  0  0  0  0  0  0
   21.4907   20.4285   20.1103 H   0  0  0  0  0  0  0  0  0  0  0  0
   21.1006   19.0405   19.0697 H   0  0  0  0  0  0  0  0  0  0  0  0
   19.7372   19.2897   20.7684 C   0  0  0  0  0  0  0  0  0  0  0  0
   18.9080   18.7424   20.2987 H   0  0  0  0  0  0  0  0  0  0  0  0
   19.2931   20.1284   21.3210 H   0  0  0  0  0  0  0  0  0  0  0  0
   20.4977   18.3542   21.7374 C   0  0  0  0  0  0  0  0  0  0  0  0
   20.9917   17.5638   21.1555 H   0  0  0  0  0  0  0  0  0  0  0  0
   21.3033   18.9121   22.2330 H   0  0  0  0  0  0  0  0  0  0  0  0
   19.5840   17.6829   22.7953 C   0  0  0  0  0  0  0  0  0  0  0  0
   20.1902   17.0014   23.4071 H   0  0  0  0  0  0  0  0  0  0  0  0
   18.8511   17.0457   22.2816 H   0  0  0  0  0  0  0  0  0  0  0  0
   18.8236   18.6687   23.7223 C   0  0  0  0  0  0  0  0  0  0  0  0
   18.0804   19.2187   23.1309 H   0  0  0  0  0  0  0  0  0  0  0  0
   18.2511   18.0929   24.4616 H   0  0  0  0  0  0  0  0  0  0  0  0
   19.7358   19.6771   24.4553 C   0  0  1  0  0  0  0  0  0  0  0  0
   20.2957   20.2429   23.7046 H   0  0  0  0  0  0  0  0  0  0  0  0
   18.8915   20.6686   25.2713 C   0  0  0  0  0  0  0  0  0  0  0  0
   18.1924   21.2110   24.6226 H   0  0  0  0  0  0  0  0  0  0  0  0
   19.5320   21.4105   25.7639 H   0  0  0  0  0  0  0  0  0  0  0  0
   18.3094   20.1521   26.0448 H   0  0  0  0  0  0  0  0  0  0  0  0
   20.7510   18.9968   25.3324 N   0  3  0  0  0  0  0  0  0  0  0  0
   21.3399   18.3577   24.7919 H   0  0  0  0  0  0  0  0  0  0  0  0
   21.3686   19.6751   25.7871 H   0  0  0  0  0  0  0  0  0  0  0  0
   20.2994   18.4504   26.0704 H   0  0  0  0  0  0  0  0  0  0  0  0
  1  2  1  0  0  0  0
  1  3  1  0  0  0  0
  1  4  1  0  0  0  0
  1  5  1  0  0  0  0
  5  6  1  0  0  0  0
  5  7  1  0  0  0  0
  5  8  1  0  0  0  0
  8  9  1  0  0  0  0
  8 10  1  0  0  0  0
  8 11  1  0  0  0  0
 11 12  1  0  0  0  0
 11 13  1  0  0  0  0
 11 14  1  0  0  0  0
 14 15  1  0  0  0  0
 14 16  1  0  0  0  0
 14 17  1  0  0  0  0
 17 18  1  0  0  0  0
 17 19  1  0  0  0  0
 19 20  1  0  0  0  0
 19 21  1  0  0  0  0
 19 22  1  0  0  0  0
 17 23  1  0  0  0  0
 23 24  1  0  0  0  0
 23 25  1  0  0  0  0
 23 26  1  0  0  0  0
M  END
> <VM2 Rank>
18

> <Conf_Id>
182

> <Probability>
1.87

> <Sum Probability>
83.62

> <Delta G>
1.316

> <G>
25.028

> <E>
-7.992

> <-TS>
33.020

> <U+W>
-29.454

> <U>
24.584

> <W>
-54.038

> <W(PB)>
-56.326

> <W(SA)>
2.288

> <Valence>
3.508

> <Coulomb>
20.402

> <VdW>
0.674

> <VdW6>
-8.749

> <VdW12>
9.423

> <Bond>
0.246

> <Angle>
1.409

> <Pdih>
1.854

> <Idih>
0.000

> <Tether>
0.000

$$$$
VeraChem MOL file


 26 25  0  0  0  0  0  0  0  0999 V2000     
   20.5830   18.9536   19.0884 C   0  0  0  0  0  0  0  0  0  0  0  0
   21.5793   19.0691   18.6422 H   0  0  0  0  0  0  0  0  0  0  0  0
   20.1449   18.0257   18.6982 H   0  0  0  0  0  0  0  0  0  0  0  0
   19.9625   19.7935   18.7496 H   0  0  0  0  0  0  0  0  0  0  0  0
   20.6763   18.9192   20.6286 C   0  0  0  0  0  0  0  0  0  0  0  0
   21.1561   19.8436   20.9760 H   0  0  0  0  0  0  0  0  0  0  0  0
   21.3260   18.0875   20.9352 H   0  0  0  0  0  0  0  0  0  0  0  0
   19.2821   18.7613   21.2804 C   0  0  0  0  0  0  0  0  0  0  0  0
   18.6505   19.6213   21.0182 H   0  0  0  0  0  0  0  0  0  0  0  0
   18.7889   17.8765   20.8545 H   0  0  0  0  0  0  0  0  0  0  0  0
   19.3294   18.6011   22.8201 C   0  0  0  0  0  0  0  0  0  0  0  0
   19.9567   17.7362   23.0735 H   0  0  0  0  0  0  0  0  0  0  0  0
   18.3155   18.3609   23.1648 H   0  0  0  0  0  0  0  0  0  0  0  0
   19.8423   19.8692   23.5563 C   0  0  0  0  0  0  0  0  0  0  0  0
   20.8671   20.0919   23.2356 H   0  0  0  0  0  0  0  0  0  0  0  0
   19.2359   20.7341   23.2565 H   0  0  0  0  0  0  0  0  0  0  0  0
   19.8396   19.7708   25.1004 C   0  0  1  0  0  0  0  0  0  0  0  0
   20.2722   20.6998   25.4848 H   0  0  0  0  0  0  0  0  0  0  0  0
   18.4162   19.6520   25.6731 C   0  0  0  0  0  0  0  0  0  0  0  0
   17.7749   20.4579   25.2952 H   0  0  0  0  0  0  0  0  0  0  0  0
   18.4362   19.7291   26.7671 H   0  0  0  0  0  0  0  0  0  0  0  0
   17.9521   18.6929   25.4147 H   0  0  0  0  0  0  0  0  0  0  0  0
   20.7192   18.6608   25.6067 N   0  3  0  0  0  0  0  0  0  0  0  0
   20.3761   17.7468   25.3016 H   0  0  0  0  0  0  0  0  0  0  0  0
   21.6803   18.7588   25.2676 H   0  0  0  0  0  0  0  0  0  0  0  0
   20.7555   18.6493   26.6299 H   0  0  0  0  0  0  0  0  0  0  0  0
  1  2  1  0  0  0  0
  1  3  1  0  0  0  0
  1  4  1  0  0  0  0
  1  5  1  0  0  0  0
  5  6  1  0  0  0  0
  5  7  1  0  0  0  0
  5  8  1  0  0  0  0
  8  9  1  0  0  0  0
  8 10  1  0  0  0  0
  8 11  1  0  0  0  0
 11 12  1  0  0  0  0
 11 13  1  0  0  0  0
 11 14  1  0  0  0  0
 14 15  1  0  0  0  0
 14 16  1  0  0  0  0
 14 17  1  0  0  0  0
 17 18  1  0  0  0  0
 17 19  1  0  0  0  0
 19 20  1  0  0  0  0
 19 21  1  0  0  0  0
 19 22  1  0  0  0  0
 17 23  1  0  0  0  0
 23 24  1  0  0  0  0
 23 25  1  0  0  0  0
 23 26  1  0  0  0  0
M  END
> <VM2 Rank>
19

> <Conf_Id>
533

> <Probability>
1.86

> <Sum Probability>
85.48

> <Delta G>
1.320

> <G>
25.032

> <E>
-7.726

> <-TS>
32.758

> <U+W>
-29.188

> <U>
24.991

> <W>
-54.178

> <W(PB)>
-56.458

> <W(SA)>
2.279

> <Valence>
3.862

> <Coulomb>
19.957

> <VdW>
1.172

> <VdW6>
-8.053

> <VdW12>
9.225

> <Bond>
0.258

> <Angle>
1.499

> <Pdih>
2.106

> <Idih>
0.000

> <Tether>
0.000

$$$$
VeraChem MOL file


 26 25  0  0  0  0  0  0  0  0999 V2000     
   20.2949   17.6425   20.3251 C   0  0  0  0  0  0  0  0  0  0  0  0
   19.7463   16.9420   19.6824 H   0  0  0  0  0  0  0  0  0  0  0  0
   21.3207   17.7177   19.9417 H   0  0  0  0  0  0  0  0  0  0  0  0
   20.3342   17.2061   21.3309 H   0  0  0  0  0  0  0  0  0  0  0  0
   19.6028   19.0243   20.3340 C   0  0  0  0  0  0  0  0  0  0  0  0
   18.5872   18.9275   20.7406 H   0  0  0  0  0  0  0  0  0  0  0  0
   19.4794   19.3646   19.2964 H   0  0  0  0  0  0  0  0  0  0  0  0
   20.3926   20.1046   21.1162 C   0  0  0  0  0  0  0  0  0  0  0  0
   21.3576   20.2697   20.6175 H   0  0  0  0  0  0  0  0  0  0  0  0
   19.8516   21.0583   21.0463 H   0  0  0  0  0  0  0  0  0  0  0  0
   20.6535   19.7806   22.6098 C   0  0  0  0  0  0  0  0  0  0  0  0
   21.2264   20.6095   23.0482 H   0  0  0  0  0  0  0  0  0  0  0  0
   21.2956   18.8939   22.6859 H   0  0  0  0  0  0  0  0  0  0  0  0
   19.3552   19.5756   23.4313 C   0  0  0  0  0  0  0  0  0  0  0  0
   18.6901   20.4331   23.2637 H   0  0  0  0  0  0  0  0  0  0  0  0
   18.8195   18.6865   23.0751 H   0  0  0  0  0  0  0  0  0  0  0  0
   19.6199   19.4381   24.9460 C   0  0  1  0  0  0  0  0  0  0  0  0
   20.1700   20.3234   25.2797 H   0  0  0  0  0  0  0  0  0  0  0  0
   18.2919   19.3761   25.7174 C   0  0  0  0  0  0  0  0  0  0  0  0
   18.4727   19.3158   26.7977 H   0  0  0  0  0  0  0  0  0  0  0  0
   17.7004   18.5010   25.4204 H   0  0  0  0  0  0  0  0  0  0  0  0
   17.6903   20.2745   25.5307 H   0  0  0  0  0  0  0  0  0  0  0  0
   20.4773   18.2462   25.2741 N   0  3  0  0  0  0  0  0  0  0  0  0
   20.6607   18.1829   26.2795 H   0  0  0  0  0  0  0  0  0  0  0  0
   20.0269   17.3726   24.9892 H   0  0  0  0  0  0  0  0  0  0  0  0
   21.3831   18.2958   24.8005 H   0  0  0  0  0  0  0  0  0  0  0  0
  1  2  1  0  0  0  0
  1  3  1  0  0  0  0
  1  4  1  0  0  0  0
  1  5  1  0  0  0  0
  5  6  1  0  0  0  0
  5  7  1  0  0  0  0
  5  8  1  0  0  0  0
  8  9  1  0  0  0  0
  8 10  1  0  0  0  0
  8 11  1  0  0  0  0
 11 12  1  0  0  0  0
 11 13  1  0  0  0  0
 11 14  1  0  0  0  0
 14 15  1  0  0  0  0
 14 16  1  0  0  0  0
 14 17  1  0  0  0  0
 17 18  1  0  0  0  0
 17 19  1  0  0  0  0
 19 20  1  0  0  0  0
 19 21  1  0  0  0  0
 19 22  1  0  0  0  0
 17 23  1  0  0  0  0
 23 24  1  0  0  0  0
 23 25  1  0  0  0  0
 23 26  1  0  0  0  0
M  END
> <VM2 Rank>
20

> <Conf_Id>
490

> <Probability>
1.63

> <Sum Probability>
87.10

> <Delta G>
1.398

> <G>
25.110

> <E>
-7.886

> <-TS>
32.995

> <U+W>
-29.348

> <U>
24.852

> <W>
-54.199

> <W(PB)>
-56.472

> <W(SA)>
2.273

> <Valence>
3.679

> <Coulomb>
20.236

> <VdW>
0.936

> <VdW6>
-8.465

> <VdW12>
9.401

> <Bond>
0.251

> <Angle>
1.471

> <Pdih>
1.958

> <Idih>
0.000

> <Tether>
0.000

$$$$
VeraChem MOL file


 26 25  0  0  0  0  0  0  0  0999 V2000     
   19.4667   19.7369   19.6719 C   0  0  0  0  0  0  0  0  0  0  0  0
   19.5189   19.7642   18.5757 H   0  0  0  0  0  0  0  0  0  0  0  0
   18.5071   19.2807   19.9447 H   0  0  0  0  0  0  0  0  0  0  0  0
   19.4709   20.7731   20.0340 H   0  0  0  0  0  0  0  0  0  0  0  0
   20.6587   18.9410   20.2502 C   0  0  0  0  0  0  0  0  0  0  0  0
   21.5925   19.3630   19.8529 H   0  0  0  0  0  0  0  0  0  0  0  0
   20.6162   17.9015   19.8961 H   0  0  0  0  0  0  0  0  0  0  0  0
   20.7205   18.9661   21.7963 C   0  0  0  0  0  0  0  0  0  0  0  0
   21.6497   18.4750   22.1168 H   0  0  0  0  0  0  0  0  0  0  0  0
   20.7867   20.0083   22.1360 H   0  0  0  0  0  0  0  0  0  0  0  0
   19.5167   18.2603   22.4701 C   0  0  0  0  0  0  0  0  0  0  0  0
   19.4103   17.2511   22.0493 H   0  0  0  0  0  0  0  0  0  0  0  0
   18.5848   18.7876   22.2307 H   0  0  0  0  0  0  0  0  0  0  0  0
   19.6671   18.1383   24.0085 C   0  0  0  0  0  0  0  0  0  0  0  0
   18.7871   17.6214   24.4137 H   0  0  0  0  0  0  0  0  0  0  0  0
   20.5264   17.4892   24.2224 H   0  0  0  0  0  0  0  0  0  0  0  0
   19.8609   19.4792   24.7553 C   0  0  1  0  0  0  0  0  0  0  0  0
   20.7433   19.9786   24.3443 H   0  0  0  0  0  0  0  0  0  0  0  0
   18.6503   20.4150   24.5883 C   0  0  0  0  0  0  0  0  0  0  0  0
   17.7269   19.9350   24.9355 H   0  0  0  0  0  0  0  0  0  0  0  0
   18.5137   20.7055   23.5401 H   0  0  0  0  0  0  0  0  0  0  0  0
   18.7921   21.3373   25.1648 H   0  0  0  0  0  0  0  0  0  0  0  0
   20.1470   19.2512   26.2136 N   0  3  0  0  0  0  0  0  0  0  0  0
   19.3633   18.7875   26.6808 H   0  0  0  0  0  0  0  0  0  0  0  0
   20.9757   18.6650   26.3485 H   0  0  0  0  0  0  0  0  0  0  0  0
   20.3158   20.1338   26.7045 H   0  0  0  0  0  0  0  0  0  0  0  0
  1  2  1  0  0  0  0
  1  3  1  0  0  0  0
  1  4  1  0  0  0  0
  1  5  1  0  0  0  0
  5  6  1  0  0  0  0
  5  7  1  0  0  0  0
  5  8  1  0  0  0  0
  8  9  1  0  0  0  0
  8 10  1  0  0  0  0
  8 11  1  0  0  0  0
 11 12  1  0  0  0  0
 11 13  1  0  0  0  0
 11 14  1  0  0  0  0
 14 15  1  0  0  0  0
 14 16  1  0  0  0  0
 14 17  1  0  0  0  0
 17 18  1  0  0  0  0
 17 19  1  0  0  0  0
 19 20  1  0  0  0  0
 19 21  1  0  0  0  0
 19 22  1  0  0  0  0
 17 23  1  0  0  0  0
 23 24  1  0  0  0  0
 23 25  1  0  0  0  0
 23 26  1  0  0  0  0
M  END
> <VM2 Rank>
21

> <Conf_Id>
152

> <Probability>
1.60

> <Sum Probability>
88.71

> <Delta G>
1.407

> <G>
25.119

> <E>
-7.847

> <-TS>
32.966

> <U+W>
-29.309

> <U>
24.864

> <W>
-54.173

> <W(PB)>
-56.445

> <W(SA)>
2.272

> <Valence>
4.004

> <Coulomb>
19.922

> <VdW>
0.937

> <VdW6>
-8.619

> <VdW12>
9.556

> <Bond>
0.248

> <Angle>
1.605

> <Pdih>
2.151

> <Idih>
0.000

> <Tether>
0.000

$$$$
VeraChem MOL file


 26 25  0  0  0  0  0  0  0  0999 V2000     
   20.1156   18.5738   19.3461 C   0  0  0  0  0  0  0  0  0  0  0  0
   19.6142   17.6487   19.6561 H   0  0  0  0  0  0  0  0  0  0  0  0
   19.3471   19.3015   19.0549 H   0  0  0  0  0  0  0  0  0  0  0  0
   20.7125   18.3416   18.4547 H   0  0  0  0  0  0  0  0  0  0  0  0
   21.0172   19.1363   20.4685 C   0  0  0  0  0  0  0  0  0  0  0  0
   21.5917   19.9832   20.0680 H   0  0  0  0  0  0  0  0  0  0  0  0
   21.7550   18.3779   20.7653 H   0  0  0  0  0  0  0  0  0  0  0  0
   20.2293   19.6161   21.7115 C   0  0  0  0  0  0  0  0  0  0  0  0
   20.9351   20.1127   22.3901 H   0  0  0  0  0  0  0  0  0  0  0  0
   19.5003   20.3808   21.4099 H   0  0  0  0  0  0  0  0  0  0  0  0
   19.5040   18.4700   22.4615 C   0  0  0  0  0  0  0  0  0  0  0  0
   20.2262   17.6907   22.7385 H   0  0  0  0  0  0  0  0  0  0  0  0
   18.7832   17.9901   21.7870 H   0  0  0  0  0  0  0  0  0  0  0  0
   18.7344   18.9527   23.7181 C   0  0  0  0  0  0  0  0  0  0  0  0
   17.9585   19.6639   23.4050 H   0  0  0  0  0  0  0  0  0  0  0  0
   18.2056   18.0990   24.1624 H   0  0  0  0  0  0  0  0  0  0  0  0
   19.6222   19.6178   24.7942 C   0  0  1  0  0  0  0  0  0  0  0  0
   20.1219   20.4808   24.3446 H   0  0  0  0  0  0  0  0  0  0  0  0
   18.7597   20.1207   25.9626 C   0  0  0  0  0  0  0  0  0  0  0  0
   18.0069   20.8372   25.6109 H   0  0  0  0  0  0  0  0  0  0  0  0
   19.3790   20.6294   26.7115 H   0  0  0  0  0  0  0  0  0  0  0  0
   18.2377   19.2917   26.4568 H   0  0  0  0  0  0  0  0  0  0  0  0
   20.7057   18.7006   25.2916 N   0  3  0  0  0  0  0  0  0  0  0  0
   20.3134   17.8651   25.7333 H   0  0  0  0  0  0  0  0  0  0  0  0
   21.3101   18.3904   24.5260 H   0  0  0  0  0  0  0  0  0  0  0  0
   21.3002   19.1638   25.9846 H   0  0  0  0  0  0  0  0  0  0  0  0
  1  2  1  0  0  0  0
  1  3  1  0  0  0  0
  1  4  1  0  0  0  0
  1  5  1  0  0  0  0
  5  6  1  0  0  0  0
  5  7  1  0  0  0  0
  5  8  1  0  0  0  0
  8  9  1  0  0  0  0
  8 10  1  0  0  0  0
  8 11  1  0  0  0  0
 11 12  1  0  0  0  0
 11 13  1  0  0  0  0
 11 14  1  0  0  0  0
 14 15  1  0  0  0  0
 14 16  1  0  0  0  0
 14 17  1  0  0  0  0
 17 18  1  0  0  0  0
 17 19  1  0  0  0  0
 19 20  1  0  0  0  0
 19 21  1  0  0  0  0
 19 22  1  0  0  0  0
 17 23  1  0  0  0  0
 23 24  1  0  0  0  0
 23 25  1  0  0  0  0
 23 26  1  0  0  0  0
M  END
> <VM2 Rank>
22

> <Conf_Id>
672

> <Probability>
1.58

> <Sum Probability>
90.29

> <Delta G>
1.416

> <G>
25.128

> <E>
-7.702

> <-TS>
32.830

> <U+W>
-29.164

> <U>
24.833

> <W>
-53.997

> <W(PB)>
-56.290

> <W(SA)>
2.294

> <Valence>
3.589

> <Coulomb>
20.270

> <VdW>
0.974

> <VdW6>
-8.255

> <VdW12>
9.228

> <Bond>
0.244

> <Angle>
1.377

> <Pdih>
1.967

> <Idih>
0.000

> <Tether>
0.000

$$$$
VeraChem MOL file


 26 25  0  0  0  0  0  0  0  0999 V2000     
   21.2410   18.1955   20.0740 C   0  0  0  0  0  0  0  0  0  0  0  0
   20.8105   17.2629   20.4593 H   0  0  0  0  0  0  0  0  0  0  0  0
   21.5333   18.0170   19.0310 H   0  0  0  0  0  0  0  0  0  0  0  0
   22.1525   18.4162   20.6444 H   0  0  0  0  0  0  0  0  0  0  0  0
   20.2339   19.3647   20.1603 C   0  0  0  0  0  0  0  0  0  0  0  0
   19.3211   19.1084   19.6045 H   0  0  0  0  0  0  0  0  0  0  0  0
   20.6647   20.2411   19.6563 H   0  0  0  0  0  0  0  0  0  0  0  0
   19.8707   19.7557   21.6129 C   0  0  0  0  0  0  0  0  0  0  0  0
   20.7875   20.0326   22.1500 H   0  0  0  0  0  0  0  0  0  0  0  0
   19.2434   20.6574   21.5849 H   0  0  0  0  0  0  0  0  0  0  0  0
   19.1166   18.6392   22.3784 C   0  0  0  0  0  0  0  0  0  0  0  0
   19.7576   17.7555   22.4889 H   0  0  0  0  0  0  0  0  0  0  0  0
   18.2523   18.3157   21.7821 H   0  0  0  0  0  0  0  0  0  0  0  0
   18.6110   19.0928   23.7719 C   0  0  0  0  0  0  0  0  0  0  0  0
   17.8850   19.9056   23.6371 H   0  0  0  0  0  0  0  0  0  0  0  0
   18.0611   18.2656   24.2401 H   0  0  0  0  0  0  0  0  0  0  0  0
   19.7288   19.5695   24.7264 C   0  0  1  0  0  0  0  0  0  0  0  0
   20.2512   20.4067   24.2541 H   0  0  0  0  0  0  0  0  0  0  0  0
   19.1262   20.0668   26.0499 C   0  0  0  0  0  0  0  0  0  0  0  0
   18.5927   19.2619   26.5708 H   0  0  0  0  0  0  0  0  0  0  0  0
   18.4189   20.8864   25.8722 H   0  0  0  0  0  0  0  0  0  0  0  0
   19.9115   20.4438   26.7167 H   0  0  0  0  0  0  0  0  0  0  0  0
   20.7598   18.5039   24.9802 N   0  3  0  0  0  0  0  0  0  0  0  0
   21.5072   18.8436   25.5920 H   0  0  0  0  0  0  0  0  0  0  0  0
   20.3449   17.6832   25.4292 H   0  0  0  0  0  0  0  0  0  0  0  0
   21.1940   18.1924   24.1072 H   0  0  0  0  0  0  0  0  0  0  0  0
  1  2  1  0  0  0  0
  1  3  1  0  0  0  0
  1  4  1  0  0  0  0
  1  5  1  0  0  0  0
  5  6  1  0  0  0  0
  5  7  1  0  0  0  0
  5  8  1  0  0  0  0
  8  9  1  0  0  0  0
  8 10  1  0  0  0  0
  8 11  1  0  0  0  0
 11 12  1  0  0  0  0
 11 13  1  0  0  0  0
 11 14  1  0  0  0  0
 14 15  1  0  0  0  0
 14 16  1  0  0  0  0
 14 17  1  0  0  0  0
 17 18  1  0  0  0  0
 17 19  1  0  0  0  0
 19 20  1  0  0  0  0
 19 21  1  0  0  0  0
 19 22  1  0  0  0  0
 17 23  1  0  0  0  0
 23 24  1  0  0  0  0
 23 25  1  0  0  0  0
 23 26  1  0  0  0  0
M  END
> <VM2 Rank>
23

> <Conf_Id>
1068

> <Probability>
1.46

> <Sum Probability>
91.75

> <Delta G>
1.463

> <G>
25.175

> <E>
-7.697

> <-TS>
32.872

> <U+W>
-29.159

> <U>
24.809

> <W>
-53.968

> <W(PB)>
-56.250

> <W(SA)>
2.282

> <Valence>
3.513

> <Coulomb>
20.422

> <VdW>
0.874

> <VdW6>
-8.372

> <VdW12>
9.246

> <Bond>
0.236

> <Angle>
1.287

> <Pdih>
1.990

> <Idih>
0.000

> <Tether>
0.000

$$$$
VeraChem MOL file


 26 25  0  0  0  0  0  0  0  0999 V2000     
   19.0820   18.2872   20.0985 C   0  0  0  0  0  0  0  0  0  0  0  0
   18.4411   18.1992   20.9846 H   0  0  0  0  0  0  0  0  0  0  0  0
   18.6942   19.1012   19.4724 H   0  0  0  0  0  0  0  0  0  0  0  0
   18.9897   17.3528   19.5300 H   0  0  0  0  0  0  0  0  0  0  0  0
   20.5559   18.5404   20.4884 C   0  0  0  0  0  0  0  0  0  0  0  0
   21.1736   18.5017   19.5803 H   0  0  0  0  0  0  0  0  0  0  0  0
   20.9146   17.7246   21.1303 H   0  0  0  0  0  0  0  0  0  0  0  0
   20.7841   19.9077   21.1819 C   0  0  0  0  0  0  0  0  0  0  0  0
   21.8559   20.0220   21.3948 H   0  0  0  0  0  0  0  0  0  0  0  0
   20.5310   20.7108   20.4761 H   0  0  0  0  0  0  0  0  0  0  0  0
   19.9830   20.1252   22.4915 C   0  0  0  0  0  0  0  0  0  0  0  0
   18.9095   20.1334   22.2647 H   0  0  0  0  0  0  0  0  0  0  0  0
   20.2196   21.1251   22.8806 H   0  0  0  0  0  0  0  0  0  0  0  0
   20.2944   19.0715   23.5853 C   0  0  0  0  0  0  0  0  0  0  0  0
   19.9496   18.0810   23.2622 H   0  0  0  0  0  0  0  0  0  0  0  0
   21.3837   19.0014   23.7029 H   0  0  0  0  0  0  0  0  0  0  0  0
   19.6722   19.4044   24.9604 C   0  0  1  0  0  0  0  0  0  0  0  0
   19.9931   20.4104   25.2478 H   0  0  0  0  0  0  0  0  0  0  0  0
   18.1336   19.3761   24.9211 C   0  0  0  0  0  0  0  0  0  0  0  0
   17.7375   20.1494   24.2529 H   0  0  0  0  0  0  0  0  0  0  0  0
   17.7181   19.5659   25.9185 H   0  0  0  0  0  0  0  0  0  0  0  0
   17.7631   18.4021   24.5780 H   0  0  0  0  0  0  0  0  0  0  0  0
   20.1830   18.4756   26.0268 N   0  3  0  0  0  0  0  0  0  0  0  0
   19.9216   17.5049   25.8348 H   0  0  0  0  0  0  0  0  0  0  0  0
   21.2038   18.5106   26.1002 H   0  0  0  0  0  0  0  0  0  0  0  0
   19.8039   18.7176   26.9466 H   0  0  0  0  0  0  0  0  0  0  0  0
  1  2  1  0  0  0  0
  1  3  1  0  0  0  0
  1  4  1  0  0  0  0
  1  5  1  0  0  0  0
  5  6  1  0  0  0  0
  5  7  1  0  0  0  0
  5  8  1  0  0  0  0
  8  9  1  0  0  0  0
  8 10  1  0  0  0  0
  8 11  1  0  0  0  0
 11 12  1  0  0  0  0
 11 13  1  0  0  0  0
 11 14  1  0  0  0  0
 14 15  1  0  0  0  0
 14 16  1  0  0  0  0
 14 17  1  0  0  0  0
 17 18  1  0  0  0  0
 17 19  1  0  0  0  0
 19 20  1  0  0  0  0
 19 21  1  0  0  0  0
 19 22  1  0  0  0  0
 17 23  1  0  0  0  0
 23 24  1  0  0  0  0
 23 25  1  0  0  0  0
 23 26  1  0  0  0  0
M  END
> <VM2 Rank>
24

> <Conf_Id>
981

> <Probability>
1.19

> <Sum Probability>
92.93

> <Delta G>
1.586

> <G>
25.298

> <E>
-7.724

> <-TS>
33.022

> <U+W>
-29.186

> <U>
25.014

> <W>
-54.200

> <W(PB)>
-56.463

> <W(SA)>
2.263

> <Valence>
4.188

> <Coulomb>
19.774

> <VdW>
1.052

> <VdW6>
-8.654

> <VdW12>
9.706

> <Bond>
0.263

> <Angle>
1.714

> <Pdih>
2.211

> <Idih>
0.000

> <Tether>
0.000

$$$$
VeraChem MOL file


 26 25  0  0  0  0  0  0  0  0999 V2000     
   20.0609   18.6168   19.3310 C   0  0  0  0  0  0  0  0  0  0  0  0
   20.0511   18.9963   18.3010 H   0  0  0  0  0  0  0  0  0  0  0  0
   20.8097   17.8160   19.3863 H   0  0  0  0  0  0  0  0  0  0  0  0
   19.0745   18.1803   19.5299 H   0  0  0  0  0  0  0  0  0  0  0  0
   20.3902   19.7554   20.3231 C   0  0  0  0  0  0  0  0  0  0  0  0
   19.6092   20.5270   20.2734 H   0  0  0  0  0  0  0  0  0  0  0  0
   21.3229   20.2417   20.0046 H   0  0  0  0  0  0  0  0  0  0  0  0
   20.5574   19.2726   21.7842 C   0  0  0  0  0  0  0  0  0  0  0  0
   21.3448   18.5077   21.8296 H   0  0  0  0  0  0  0  0  0  0  0  0
   20.9143   20.1207   22.3831 H   0  0  0  0  0  0  0  0  0  0  0  0
   19.2501   18.7150   22.4023 C   0  0  0  0  0  0  0  0  0  0  0  0
   18.9023   17.8577   21.8118 H   0  0  0  0  0  0  0  0  0  0  0  0
   18.4552   19.4695   22.3362 H   0  0  0  0  0  0  0  0  0  0  0  0
   19.4194   18.2458   23.8709 C   0  0  0  0  0  0  0  0  0  0  0  0
   18.4633   17.8401   24.2273 H   0  0  0  0  0  0  0  0  0  0  0  0
   20.1296   17.4085   23.8869 H   0  0  0  0  0  0  0  0  0  0  0  0
   19.9108   19.3310   24.8582 C   0  0  1  0  0  0  0  0  0  0  0  0
   20.8689   19.7174   24.4987 H   0  0  0  0  0  0  0  0  0  0  0  0
   18.9220   20.5054   24.9668 C   0  0  0  0  0  0  0  0  0  0  0  0
   17.9263   20.1590   25.2703 H   0  0  0  0  0  0  0  0  0  0  0  0
   18.8259   21.0340   24.0112 H   0  0  0  0  0  0  0  0  0  0  0  0
   19.2690   21.2357   25.7081 H   0  0  0  0  0  0  0  0  0  0  0  0
   20.1771   18.7460   26.2174 N   0  3  0  0  0  0  0  0  0  0  0  0
   20.8659   17.9894   26.1744 H   0  0  0  0  0  0  0  0  0  0  0  0
   20.5408   19.4517   26.8640 H   0  0  0  0  0  0  0  0  0  0  0  0
   19.3245   18.3620   26.6333 H   0  0  0  0  0  0  0  0  0  0  0  0
  1  2  1  0  0  0  0
  1  3  1  0  0  0  0
  1  4  1  0  0  0  0
  1  5  1  0  0  0  0
  5  6  1  0  0  0  0
  5  7  1  0  0  0  0
  5  8  1  0  0  0  0
  8  9  1  0  0  0  0
  8 10  1  0  0  0  0
  8 11  1  0  0  0  0
 11 12  1  0  0  0  0
 11 13  1  0  0  0  0
 11 14  1  0  0  0  0
 14 15  1  0  0  0  0
 14 16  1  0  0  0  0
 14 17  1  0  0  0  0
 17 18  1  0  0  0  0
 17 19  1  0  0  0  0
 19 20  1  0  0  0  0
 19 21  1  0  0  0  0
 19 22  1  0  0  0  0
 17 23  1  0  0  0  0
 23 24  1  0  0  0  0
 23 25  1  0  0  0  0
 23 26  1  0  0  0  0
M  END
> <VM2 Rank>
25

> <Conf_Id>
5

> <Probability>
1.14

> <Sum Probability>
94.08

> <Delta G>
1.608

> <G>
25.320

> <E>
-7.603

> <-TS>
32.924

> <U+W>
-29.065

> <U>
25.023

> <W>
-54.088

> <W(PB)>
-56.383

> <W(SA)>
2.296

> <Valence>
4.083

> <Coulomb>
19.893

> <VdW>
1.047

> <VdW6>
-8.479

> <VdW12>
9.527

> <Bond>
0.256

> <Angle>
1.716

> <Pdih>
2.112

> <Idih>
0.000

> <Tether>
0.000

$$$$
VeraChem MOL file


 26 25  0  0  0  0  0  0  0  0999 V2000     
   21.1680   19.3998   19.7805 C   0  0  0  0  0  0  0  0  0  0  0  0
   22.0081   18.8115   19.3890 H   0  0  0  0  0  0  0  0  0  0  0  0
   20.4812   19.6012   18.9481 H   0  0  0  0  0  0  0  0  0  0  0  0
   21.5653   20.3594   20.1360 H   0  0  0  0  0  0  0  0  0  0  0  0
   20.4539   18.6396   20.9181 C   0  0  0  0  0  0  0  0  0  0  0  0
   21.1808   18.4217   21.7118 H   0  0  0  0  0  0  0  0  0  0  0  0
   20.0944   17.6721   20.5406 H   0  0  0  0  0  0  0  0  0  0  0  0
   19.2669   19.4510   21.4883 C   0  0  0  0  0  0  0  0  0  0  0  0
   19.6315   20.4029   21.8968 H   0  0  0  0  0  0  0  0  0  0  0  0
   18.5879   19.7157   20.6660 H   0  0  0  0  0  0  0  0  0  0  0  0
   18.4547   18.6867   22.5655 C   0  0  0  0  0  0  0  0  0  0  0  0
   18.0111   17.7908   22.1099 H   0  0  0  0  0  0  0  0  0  0  0  0
   17.6052   19.3085   22.8782 H   0  0  0  0  0  0  0  0  0  0  0  0
   19.2691   18.2582   23.8159 C   0  0  0  0  0  0  0  0  0  0  0  0
   18.5896   17.7881   24.5391 H   0  0  0  0  0  0  0  0  0  0  0  0
   19.9800   17.4751   23.5233 H   0  0  0  0  0  0  0  0  0  0  0  0
   20.0434   19.4018   24.5122 C   0  0  1  0  0  0  0  0  0  0  0  0
   20.7039   19.8686   23.7754 H   0  0  0  0  0  0  0  0  0  0  0  0
   19.0982   20.4797   25.0722 C   0  0  0  0  0  0  0  0  0  0  0  0
   18.3841   20.0493   25.7853 H   0  0  0  0  0  0  0  0  0  0  0  0
   18.5309   20.9669   24.2706 H   0  0  0  0  0  0  0  0  0  0  0  0
   19.6671   21.2616   25.5900 H   0  0  0  0  0  0  0  0  0  0  0  0
   20.9339   18.8712   25.6013 N   0  3  0  0  0  0  0  0  0  0  0  0
   21.4770   19.6208   26.0389 H   0  0  0  0  0  0  0  0  0  0  0  0
   20.3908   18.4171   26.3405 H   0  0  0  0  0  0  0  0  0  0  0  0
   21.6007   18.1822   25.2421 H   0  0  0  0  0  0  0  0  0  0  0  0
  1  2  1  0  0  0  0
  1  3  1  0  0  0  0
  1  4  1  0  0  0  0
  1  5  1  0  0  0  0
  5  6  1  0  0  0  0
  5  7  1  0  0  0  0
  5  8  1  0  0  0  0
  8  9  1  0  0  0  0
  8 10  1  0  0  0  0
  8 11  1  0  0  0  0
 11 12  1  0  0  0  0
 11 13  1  0  0  0  0
 11 14  1  0  0  0  0
 14 15  1  0  0  0  0
 14 16  1  0  0  0  0
 14 17  1  0  0  0  0
 17 18  1  0  0  0  0
 17 19  1  0  0  0  0
 19 20  1  0  0  0  0
 19 21  1  0  0  0  0
 19 22  1  0  0  0  0
 17 23  1  0  0  0  0
 23 24  1  0  0  0  0
 23 25  1  0  0  0  0
 23 26  1  0  0  0  0
M  END
> <VM2 Rank>
26

> <Conf_Id>
164

> <Probability>
1.06

> <Sum Probability>
95.14

> <Delta G>
1.653

> <G>
25.365

> <E>
-7.775

> <-TS>
33.140

> <U+W>
-29.236

> <U>
25.091

> <W>
-54.328

> <W(PB)>
-56.621

> <W(SA)>
2.294

> <Valence>
3.982

> <Coulomb>
20.360

> <VdW>
0.750

> <VdW6>
-8.971

> <VdW12>
9.720

> <Bond>
0.256

> <Angle>
1.694

> <Pdih>
2.032

> <Idih>
0.000

> <Tether>
0.000

$$$$
VeraChem MOL file


 26 25  0  0  0  0  0  0  0  0999 V2000     
   19.0301   19.3232   19.9751 C   0  0  0  0  0  0  0  0  0  0  0  0
   18.7105   18.3318   19.6289 H   0  0  0  0  0  0  0  0  0  0  0  0
   18.3828   19.6220   20.8091 H   0  0  0  0  0  0  0  0  0  0  0  0
   18.8635   20.0351   19.1563 H   0  0  0  0  0  0  0  0  0  0  0  0
   20.5190   19.3134   20.3893 C   0  0  0  0  0  0  0  0  0  0  0  0
   20.8097   20.3087   20.7511 H   0  0  0  0  0  0  0  0  0  0  0  0
   21.1330   19.1280   19.4969 H   0  0  0  0  0  0  0  0  0  0  0  0
   20.8568   18.2366   21.4520 C   0  0  0  0  0  0  0  0  0  0  0  0
   20.6777   17.2429   21.0187 H   0  0  0  0  0  0  0  0  0  0  0  0
   21.9329   18.2794   21.6695 H   0  0  0  0  0  0  0  0  0  0  0  0
   20.0681   18.3478   22.7823 C   0  0  0  0  0  0  0  0  0  0  0  0
   20.3824   17.5214   23.4329 H   0  0  0  0  0  0  0  0  0  0  0  0
   18.9998   18.1909   22.5870 H   0  0  0  0  0  0  0  0  0  0  0  0
   20.2876   19.6986   23.5165 C   0  0  0  0  0  0  0  0  0  0  0  0
   21.3649   19.8800   23.6243 H   0  0  0  0  0  0  0  0  0  0  0  0
   19.9013   20.5201   22.9002 H   0  0  0  0  0  0  0  0  0  0  0  0
   19.6313   19.7925   24.9142 C   0  0  1  0  0  0  0  0  0  0  0  0
   19.8741   20.7790   25.3212 H   0  0  0  0  0  0  0  0  0  0  0  0
   18.0982   19.6841   24.8403 C   0  0  0  0  0  0  0  0  0  0  0  0
   17.6516   19.8884   25.8211 H   0  0  0  0  0  0  0  0  0  0  0  0
   17.7770   18.6833   24.5280 H   0  0  0  0  0  0  0  0  0  0  0  0
   17.6895   20.4138   24.1303 H   0  0  0  0  0  0  0  0  0  0  0  0
   20.1968   18.7918   25.8844 N   0  3  0  0  0  0  0  0  0  0  0  0
   21.2127   18.8860   25.9715 H   0  0  0  0  0  0  0  0  0  0  0  0
   19.7975   18.9107   26.8197 H   0  0  0  0  0  0  0  0  0  0  0  0
   20.0005   17.8332   25.5868 H   0  0  0  0  0  0  0  0  0  0  0  0
  1  2  1  0  0  0  0
  1  3  1  0  0  0  0
  1  4  1  0  0  0  0
  1  5  1  0  0  0  0
  5  6  1  0  0  0  0
  5  7  1  0  0  0  0
  5  8  1  0  0  0  0
  8  9  1  0  0  0  0
  8 10  1  0  0  0  0
  8 11  1  0  0  0  0
 11 12  1  0  0  0  0
 11 13  1  0  0  0  0
 11 14  1  0  0  0  0
 14 15  1  0  0  0  0
 14 16  1  0  0  0  0
 14 17  1  0  0  0  0
 17 18  1  0  0  0  0
 17 19  1  0  0  0  0
 19 20  1  0  0  0  0
 19 21  1  0  0  0  0
 19 22  1  0  0  0  0
 17 23  1  0  0  0  0
 23 24  1  0  0  0  0
 23 25  1  0  0  0  0
 23 26  1  0  0  0  0
M  END
> <VM2 Rank>
27

> <Conf_Id>
568

> <Probability>
0.85

> <Sum Probability>
95.99

> <Delta G>
1.788

> <G>
25.500

> <E>
-7.650

> <-TS>
33.151

> <U+W>
-29.112

> <U>
25.100

> <W>
-54.212

> <W(PB)>
-56.442

> <W(SA)>
2.229

> <Valence>
4.185

> <Coulomb>
19.843

> <VdW>
1.072

> <VdW6>
-9.125

> <VdW12>
10.197

> <Bond>
0.294

> <Angle>
1.814

> <Pdih>
2.077

> <Idih>
0.000

> <Tether>
0.000

$$$$
VeraChem MOL file


 26 25  0  0  0  0  0  0  0  0999 V2000     
   21.3089   19.2393   20.1278 C   0  0  0  0  0  0  0  0  0  0  0  0
   22.0916   18.7005   19.5783 H   0  0  0  0  0  0  0  0  0  0  0  0
   21.0052   20.1020   19.5208 H   0  0  0  0  0  0  0  0  0  0  0  0
   21.7558   19.6126   21.0576 H   0  0  0  0  0  0  0  0  0  0  0  0
   20.1078   18.3090   20.4106 C   0  0  0  0  0  0  0  0  0  0  0  0
   20.4306   17.4658   21.0355 H   0  0  0  0  0  0  0  0  0  0  0  0
   19.7729   17.8664   19.4620 H   0  0  0  0  0  0  0  0  0  0  0  0
   18.9051   19.0350   21.0661 C   0  0  0  0  0  0  0  0  0  0  0  0
   18.5155   19.7803   20.3591 H   0  0  0  0  0  0  0  0  0  0  0  0
   18.0928   18.3103   21.2153 H   0  0  0  0  0  0  0  0  0  0  0  0
   19.2044   19.7416   22.4141 C   0  0  0  0  0  0  0  0  0  0  0  0
   18.2826   20.2401   22.7398 H   0  0  0  0  0  0  0  0  0  0  0  0
   19.9430   20.5398   22.2626 H   0  0  0  0  0  0  0  0  0  0  0  0
   19.6950   18.7769   23.5250 C   0  0  0  0  0  0  0  0  0  0  0  0
   18.9493   17.9873   23.6867 H   0  0  0  0  0  0  0  0  0  0  0  0
   20.6098   18.2776   23.1834 H   0  0  0  0  0  0  0  0  0  0  0  0
   20.0091   19.4794   24.8660 C   0  0  1  0  0  0  0  0  0  0  0  0
   20.7060   20.2997   24.6686 H   0  0  0  0  0  0  0  0  0  0  0  0
   18.7472   20.0600   25.5300 C   0  0  0  0  0  0  0  0  0  0  0  0
   17.9879   19.2837   25.6860 H   0  0  0  0  0  0  0  0  0  0  0  0
   18.3050   20.8566   24.9211 H   0  0  0  0  0  0  0  0  0  0  0  0
   18.9912   20.4975   26.5059 H   0  0  0  0  0  0  0  0  0  0  0  0
   20.7106   18.5469   25.8145 N   0  3  0  0  0  0  0  0  0  0  0  0
   21.5787   18.1820   25.4122 H   0  0  0  0  0  0  0  0  0  0  0  0
   20.9560   19.0185   26.6896 H   0  0  0  0  0  0  0  0  0  0  0  0
   20.1219   17.7449   26.0548 H   0  0  0  0  0  0  0  0  0  0  0  0
  1  2  1  0  0  0  0
  1  3  1  0  0  0  0
  1  4  1  0  0  0  0
  1  5  1  0  0  0  0
  5  6  1  0  0  0  0
  5  7  1  0  0  0  0
  5  8  1  0  0  0  0
  8  9  1  0  0  0  0
  8 10  1  0  0  0  0
  8 11  1  0  0  0  0
 11 12  1  0  0  0  0
 11 13  1  0  0  0  0
 11 14  1  0  0  0  0
 14 15  1  0  0  0  0
 14 16  1  0  0  0  0
 14 17  1  0  0  0  0
 17 18  1  0  0  0  0
 17 19  1  0  0  0  0
 19 20  1  0  0  0  0
 19 21  1  0  0  0  0
 19 22  1  0  0  0  0
 17 23  1  0  0  0  0
 23 24  1  0  0  0  0
 23 25  1  0  0  0  0
 23 26  1  0  0  0  0
M  END
> <VM2 Rank>
28

> <Conf_Id>
279

> <Probability>
0.77

> <Sum Probability>
96.75

> <Delta G>
1.846

> <G>
25.558

> <E>
-7.393

> <-TS>
32.951

> <U+W>
-28.854

> <U>
25.366

> <W>
-54.220

> <W(PB)>
-56.490

> <W(SA)>
2.270

> <Valence>
4.329

> <Coulomb>
19.841

> <VdW>
1.196

> <VdW6>
-8.514

> <VdW12>
9.710

> <Bond>
0.275

> <Angle>
1.895

> <Pdih>
2.159

> <Idih>
0.000

> <Tether>
0.000

$$$$
VeraChem MOL file


 26 25  0  0  0  0  0  0  0  0999 V2000     
   19.5263   19.2325   19.7862 C   0  0  0  0  0  0  0  0  0  0  0  0
   19.2465   20.0429   19.1007 H   0  0  0  0  0  0  0  0  0  0  0  0
   20.0172   18.4478   19.1962 H   0  0  0  0  0  0  0  0  0  0  0  0
   18.6003   18.8192   20.2049 H   0  0  0  0  0  0  0  0  0  0  0  0
   20.4634   19.7610   20.8955 C   0  0  0  0  0  0  0  0  0  0  0  0
   19.9471   20.5347   21.4792 H   0  0  0  0  0  0  0  0  0  0  0  0
   21.3211   20.2614   20.4247 H   0  0  0  0  0  0  0  0  0  0  0  0
   20.9953   18.6469   21.8325 C   0  0  0  0  0  0  0  0  0  0  0  0
   21.5913   17.9399   21.2391 H   0  0  0  0  0  0  0  0  0  0  0  0
   21.6963   19.0928   22.5506 H   0  0  0  0  0  0  0  0  0  0  0  0
   19.9030   17.8530   22.5988 C   0  0  0  0  0  0  0  0  0  0  0  0
   20.3922   17.1044   23.2361 H   0  0  0  0  0  0  0  0  0  0  0  0
   19.3029   17.2755   21.8831 H   0  0  0  0  0  0  0  0  0  0  0  0
   18.9523   18.7229   23.4636 C   0  0  0  0  0  0  0  0  0  0  0  0
   18.3394   19.3500   22.8035 H   0  0  0  0  0  0  0  0  0  0  0  0
   18.2490   18.0660   23.9921 H   0  0  0  0  0  0  0  0  0  0  0  0
   19.6790   19.6233   24.4870 C   0  0  1  0  0  0  0  0  0  0  0  0
   20.3756   20.2685   23.9434 H   0  0  0  0  0  0  0  0  0  0  0  0
   18.6705   20.5192   25.2233 C   0  0  0  0  0  0  0  0  0  0  0  0
   18.1149   21.1451   24.5138 H   0  0  0  0  0  0  0  0  0  0  0  0
   19.1848   21.1877   25.9247 H   0  0  0  0  0  0  0  0  0  0  0  0
   17.9468   19.9202   25.7901 H   0  0  0  0  0  0  0  0  0  0  0  0
   20.4981   18.8291   25.4671 N   0  3  0  0  0  0  0  0  0  0  0  0
   19.9100   18.2026   26.0229 H   0  0  0  0  0  0  0  0  0  0  0  0
   21.1952   18.2531   24.9877 H   0  0  0  0  0  0  0  0  0  0  0  0
   20.9985   19.4394   26.1194 H   0  0  0  0  0  0  0  0  0  0  0  0
  1  2  1  0  0  0  0
  1  3  1  0  0  0  0
  1  4  1  0  0  0  0
  1  5  1  0  0  0  0
  5  6  1  0  0  0  0
  5  7  1  0  0  0  0
  5  8  1  0  0  0  0
  8  9  1  0  0  0  0
  8 10  1  0  0  0  0
  8 11  1  0  0  0  0
 11 12  1  0  0  0  0
 11 13  1  0  0  0  0
 11 14  1  0  0  0  0
 14 15  1  0  0  0  0
 14 16  1  0  0  0  0
 14 17  1  0  0  0  0
 17 18  1  0  0  0  0
 17 19  1  0  0  0  0
 19 20  1  0  0  0  0
 19 21  1  0  0  0  0
 19 22  1  0  0  0  0
 17 23  1  0  0  0  0
 23 24  1  0  0  0  0
 23 25  1  0  0  0  0
 23 26  1  0  0  0  0
M  END
> <VM2 Rank>
29

> <Conf_Id>
237

> <Probability>
0.72

> <Sum Probability>
97.48

> <Delta G>
1.883

> <G>
25.595

> <E>
-7.748

> <-TS>
33.343

> <U+W>
-29.210

> <U>
24.974

> <W>
-54.184

> <W(PB)>
-56.449

> <W(SA)>
2.265

> <Valence>
3.932

> <Coulomb>
20.395

> <VdW>
0.646

> <VdW6>
-9.633

> <VdW12>
10.279

> <Bond>
0.286

> <Angle>
1.718

> <Pdih>
1.928

> <Idih>
0.000

> <Tether>
0.000

$$$$
VeraChem MOL file


 26 25  0  0  0  0  0  0  0  0999 V2000     
   21.1969   18.1891   20.3636 C   0  0  0  0  0  0  0  0  0  0  0  0
   21.5605   17.9697   21.3751 H   0  0  0  0  0  0  0  0  0  0  0  0
   20.6670   17.3041   19.9883 H   0  0  0  0  0  0  0  0  0  0  0  0
   22.0749   18.3512   19.7251 H   0  0  0  0  0  0  0  0  0  0  0  0
   20.2800   19.4330   20.3489 C   0  0  0  0  0  0  0  0  0  0  0  0
   20.0420   19.6842   19.3059 H   0  0  0  0  0  0  0  0  0  0  0  0
   20.8239   20.2994   20.7482 H   0  0  0  0  0  0  0  0  0  0  0  0
   18.9515   19.2300   21.1216 C   0  0  0  0  0  0  0  0  0  0  0  0
   18.3524   20.1477   21.0427 H   0  0  0  0  0  0  0  0  0  0  0  0
   18.3672   18.4465   20.6197 H   0  0  0  0  0  0  0  0  0  0  0  0
   19.1027   18.8533   22.6183 C   0  0  0  0  0  0  0  0  0  0  0  0
   19.6054   17.8817   22.7035 H   0  0  0  0  0  0  0  0  0  0  0  0
   18.0956   18.7113   23.0305 H   0  0  0  0  0  0  0  0  0  0  0  0
   19.8591   19.9247   23.4504 C   0  0  0  0  0  0  0  0  0  0  0  0
   20.8746   20.0470   23.0544 H   0  0  0  0  0  0  0  0  0  0  0  0
   19.3652   20.8973   23.3255 H   0  0  0  0  0  0  0  0  0  0  0  0
   19.9735   19.6139   24.9617 C   0  0  1  0  0  0  0  0  0  0  0  0
   20.5676   20.4147   25.4129 H   0  0  0  0  0  0  0  0  0  0  0  0
   18.6019   19.6063   25.6593 C   0  0  0  0  0  0  0  0  0  0  0  0
   17.9833   18.7626   25.3317 H   0  0  0  0  0  0  0  0  0  0  0  0
   18.0547   20.5348   25.4541 H   0  0  0  0  0  0  0  0  0  0  0  0
   18.7258   19.5273   26.7463 H   0  0  0  0  0  0  0  0  0  0  0  0
   20.7224   18.3376   25.2302 N   0  3  0  0  0  0  0  0  0  0  0  0
   21.6556   18.3541   24.8091 H   0  0  0  0  0  0  0  0  0  0  0  0
   20.8428   18.1789   26.2346 H   0  0  0  0  0  0  0  0  0  0  0  0
   20.2257   17.5287   24.8491 H   0  0  0  0  0  0  0  0  0  0  0  0
  1  2  1  0  0  0  0
  1  3  1  0  0  0  0
  1  4  1  0  0  0  0
  1  5  1  0  0  0  0
  5  6  1  0  0  0  0
  5  7  1  0  0  0  0
  5  8  1  0  0  0  0
  8  9  1  0  0  0  0
  8 10  1  0  0  0  0
  8 11  1  0  0  0  0
 11 12  1  0  0  0  0
 11 13  1  0  0  0  0
 11 14  1  0  0  0  0
 14 15  1  0  0  0  0
 14 16  1  0  0  0  0
 14 17  1  0  0  0  0
 17 18  1  0  0  0  0
 17 19  1  0  0  0  0
 19 20  1  0  0  0  0
 19 21  1  0  0  0  0
 19 22  1  0  0  0  0
 17 23  1  0  0  0  0
 23 24  1  0  0  0  0
 23 25  1  0  0  0  0
 23 26  1  0  0  0  0
M  END
> <VM2 Rank>
30

> <Conf_Id>
462

> <Probability>
0.49

> <Sum Probability>
97.97

> <Delta G>
2.110

> <G>
25.822

> <E>
-7.287

> <-TS>
33.109

> <U+W>
-28.749

> <U>
25.589

> <W>
-54.338

> <W(PB)>
-56.600

> <W(SA)>
2.262

> <Valence>
4.268

> <Coulomb>
20.217

> <VdW>
1.104

> <VdW6>
-9.052

> <VdW12>
10.157

> <Bond>
0.298

> <Angle>
1.891

> <Pdih>
2.079

> <Idih>
0.000

> <Tether>
0.000

$$$$
VeraChem MOL file


 26 25  0  0  0  0  0  0  0  0999 V2000     
   20.5368   18.2093   19.9948 C   0  0  0  0  0  0  0  0  0  0  0  0
   21.4558   17.7928   19.5627 H   0  0  0  0  0  0  0  0  0  0  0  0
   20.0023   17.3886   20.4889 H   0  0  0  0  0  0  0  0  0  0  0  0
   19.9142   18.5775   19.1692 H   0  0  0  0  0  0  0  0  0  0  0  0
   20.8718   19.3460   20.9868 C   0  0  0  0  0  0  0  0  0  0  0  0
   21.4989   20.0888   20.4743 H   0  0  0  0  0  0  0  0  0  0  0  0
   21.4837   18.9516   21.8089 H   0  0  0  0  0  0  0  0  0  0  0  0
   19.6165   20.0618   21.5470 C   0  0  0  0  0  0  0  0  0  0  0  0
   19.9383   20.8904   22.1919 H   0  0  0  0  0  0  0  0  0  0  0  0
   19.0743   20.5300   20.7140 H   0  0  0  0  0  0  0  0  0  0  0  0
   18.6326   19.1509   22.3293 C   0  0  0  0  0  0  0  0  0  0  0  0
   18.1871   18.4201   21.6414 H   0  0  0  0  0  0  0  0  0  0  0  0
   17.7916   19.7612   22.6843 H   0  0  0  0  0  0  0  0  0  0  0  0
   19.2620   18.3920   23.5282 C   0  0  0  0  0  0  0  0  0  0  0  0
   18.4759   17.8246   24.0435 H   0  0  0  0  0  0  0  0  0  0  0  0
   19.9654   17.6437   23.1414 H   0  0  0  0  0  0  0  0  0  0  0  0
   19.9986   19.2886   24.5507 C   0  0  1  0  0  0  0  0  0  0  0  0
   20.7638   19.8609   24.0179 H   0  0  0  0  0  0  0  0  0  0  0  0
   19.0438   20.2777   25.2428 C   0  0  0  0  0  0  0  0  0  0  0  0
   18.2290   19.7502   25.7542 H   0  0  0  0  0  0  0  0  0  0  0  0
   18.6017   20.9749   24.5216 H   0  0  0  0  0  0  0  0  0  0  0  0
   19.5816   20.8772   25.9875 H   0  0  0  0  0  0  0  0  0  0  0  0
   20.7258   18.4618   25.5744 N   0  3  0  0  0  0  0  0  0  0  0  0
   21.2466   19.0512   26.2300 H   0  0  0  0  0  0  0  0  0  0  0  0
   20.0771   17.8931   26.1250 H   0  0  0  0  0  0  0  0  0  0  0  0
   21.3982   17.8251   25.1373 H   0  0  0  0  0  0  0  0  0  0  0  0
  1  2  1  0  0  0  0
  1  3  1  0  0  0  0
  1  4  1  0  0  0  0
  1  5  1  0  0  0  0
  5  6  1  0  0  0  0
  5  7  1  0  0  0  0
  5  8  1  0  0  0  0
  8  9  1  0  0  0  0
  8 10  1  0  0  0  0
  8 11  1  0  0  0  0
 11 12  1  0  0  0  0
 11 13  1  0  0  0  0
 11 14  1  0  0  0  0
 14 15  1  0  0  0  0
 14 16  1  0  0  0  0
 14 17  1  0  0  0  0
 17 18  1  0  0  0  0
 17 19  1  0  0  0  0
 19 20  1  0  0  0  0
 19 21  1  0  0  0  0
 19 22  1  0  0  0  0
 17 23  1  0  0  0  0
 23 24  1  0  0  0  0
 23 25  1  0  0  0  0
 23 26  1  0  0  0  0
M  END
> <VM2 Rank>
31

> <Conf_Id>
228

> <Probability>
0.40

> <Sum Probability>
98.37

> <Delta G>
2.233

> <G>
25.945

> <E>
-7.505

> <-TS>
33.450

> <U+W>
-28.967

> <U>
25.506

> <W>
-54.473

> <W(PB)>
-56.692

> <W(SA)>
2.218

> <Valence>
4.414

> <Coulomb>
20.363

> <VdW>
0.729

> <VdW6>
-9.838

> <VdW12>
10.567

> <Bond>
0.296

> <Angle>
2.006

> <Pdih>
2.112

> <Idih>
0.000

> <Tether>
0.000

$$$$
VeraChem MOL file


 26 25  0  0  0  0  0  0  0  0999 V2000     
   20.7149   17.8853   19.4382 C   0  0  0  0  0  0  0  0  0  0  0  0
   19.7256   17.4921   19.1702 H   0  0  0  0  0  0  0  0  0  0  0  0
   21.2550   18.1016   18.5073 H   0  0  0  0  0  0  0  0  0  0  0  0
   21.2634   17.0973   19.9705 H   0  0  0  0  0  0  0  0  0  0  0  0
   20.5905   19.1572   20.3038 C   0  0  0  0  0  0  0  0  0  0  0  0
   20.0698   19.9376   19.7313 H   0  0  0  0  0  0  0  0  0  0  0  0
   21.5942   19.5451   20.5279 H   0  0  0  0  0  0  0  0  0  0  0  0
   19.8318   18.8811   21.6208 C   0  0  0  0  0  0  0  0  0  0  0  0
   18.8290   18.4972   21.3876 H   0  0  0  0  0  0  0  0  0  0  0  0
   20.3520   18.0890   22.1701 H   0  0  0  0  0  0  0  0  0  0  0  0
   19.7054   20.1591   22.4868 C   0  0  0  0  0  0  0  0  0  0  0  0
   19.2011   20.9281   21.8852 H   0  0  0  0  0  0  0  0  0  0  0  0
   20.7001   20.5628   22.7216 H   0  0  0  0  0  0  0  0  0  0  0  0
   18.8925   19.9601   23.7934 C   0  0  0  0  0  0  0  0  0  0  0  0
   18.4400   20.9265   24.0529 H   0  0  0  0  0  0  0  0  0  0  0  0
   18.0538   19.2728   23.6205 H   0  0  0  0  0  0  0  0  0  0  0  0
   19.7304   19.4936   25.0072 C   0  0  1  0  0  0  0  0  0  0  0  0
   20.5568   20.1985   25.1411 H   0  0  0  0  0  0  0  0  0  0  0  0
   18.8726   19.5142   26.2828 C   0  0  0  0  0  0  0  0  0  0  0  0
   18.4755   20.5196   26.4706 H   0  0  0  0  0  0  0  0  0  0  0  0
   19.4688   19.2246   27.1569 H   0  0  0  0  0  0  0  0  0  0  0  0
   18.0252   18.8218   26.2025 H   0  0  0  0  0  0  0  0  0  0  0  0
   20.3498   18.1374   24.8209 N   0  3  0  0  0  0  0  0  0  0  0  0
   20.9013   17.8629   25.6387 H   0  0  0  0  0  0  0  0  0  0  0  0
   19.6363   17.4185   24.6753 H   0  0  0  0  0  0  0  0  0  0  0  0
   20.9752   18.1257   24.0112 H   0  0  0  0  0  0  0  0  0  0  0  0
  1  2  1  0  0  0  0
  1  3  1  0  0  0  0
  1  4  1  0  0  0  0
  1  5  1  0  0  0  0
  5  6  1  0  0  0  0
  5  7  1  0  0  0  0
  5  8  1  0  0  0  0
  8  9  1  0  0  0  0
  8 10  1  0  0  0  0
  8 11  1  0  0  0  0
 11 12  1  0  0  0  0
 11 13  1  0  0  0  0
 11 14  1  0  0  0  0
 14 15  1  0  0  0  0
 14 16  1  0  0  0  0
 14 17  1  0  0  0  0
 17 18  1  0  0  0  0
 17 19  1  0  0  0  0
 19 20  1  0  0  0  0
 19 21  1  0  0  0  0
 19 22  1  0  0  0  0
 17 23  1  0  0  0  0
 23 24  1  0  0  0  0
 23 25  1  0  0  0  0
 23 26  1  0  0  0  0
M  END
> <VM2 Rank>
32

> <Conf_Id>
732

> <Probability>
0.19

> <Sum Probability>
98.56

> <Delta G>
2.691

> <G>
26.403

> <E>
-5.958

> <-TS>
32.361

> <U+W>
-27.420

> <U>
26.493

> <W>
-53.913

> <W(PB)>
-56.220

> <W(SA)>
2.307

> <Valence>
4.730

> <Coulomb>
20.826

> <VdW>
0.936

> <VdW6>
-7.662

> <VdW12>
8.598

> <Bond>
0.241

> <Angle>
1.433

> <Pdih>
3.056

> <Idih>
0.000

> <Tether>
0.000

$$$$
VeraChem MOL file


 26 25  0  0  0  0  0  0  0  0999 V2000     
   21.3644   19.2444   19.9313 C   0  0  0  0  0  0  0  0  0  0  0  0
   21.1782   20.3000   20.1645 H   0  0  0  0  0  0  0  0  0  0  0  0
   22.2227   18.9063   20.5263 H   0  0  0  0  0  0  0  0  0  0  0  0
   21.6465   19.1855   18.8722 H   0  0  0  0  0  0  0  0  0  0  0  0
   20.1179   18.3733   20.2078 C   0  0  0  0  0  0  0  0  0  0  0  0
   20.3132   17.3521   19.8515 H   0  0  0  0  0  0  0  0  0  0  0  0
   19.2681   18.7464   19.6192 H   0  0  0  0  0  0  0  0  0  0  0  0
   19.7327   18.3122   21.7054 C   0  0  0  0  0  0  0  0  0  0  0  0
   18.9108   17.5924   21.8221 H   0  0  0  0  0  0  0  0  0  0  0  0
   20.5799   17.9081   22.2698 H   0  0  0  0  0  0  0  0  0  0  0  0
   19.2898   19.6839   22.2781 C   0  0  0  0  0  0  0  0  0  0  0  0
   18.5166   20.0951   21.6145 H   0  0  0  0  0  0  0  0  0  0  0  0
   20.1215   20.4005   22.2564 H   0  0  0  0  0  0  0  0  0  0  0  0
   18.7017   19.6144   23.7126 C   0  0  0  0  0  0  0  0  0  0  0  0
   18.0352   20.4783   23.8372 H   0  0  0  0  0  0  0  0  0  0  0  0
   18.0650   18.7266   23.8222 H   0  0  0  0  0  0  0  0  0  0  0  0
   19.7537   19.6657   24.8457 C   0  0  1  0  0  0  0  0  0  0  0  0
   20.3852   20.5450   24.6852 H   0  0  0  0  0  0  0  0  0  0  0  0
   19.0575   19.8187   26.2079 C   0  0  0  0  0  0  0  0  0  0  0  0
   18.4432   20.7274   26.2331 H   0  0  0  0  0  0  0  0  0  0  0  0
   19.7961   19.8954   27.0154 H   0  0  0  0  0  0  0  0  0  0  0  0
   18.4073   18.9607   26.4198 H   0  0  0  0  0  0  0  0  0  0  0  0
   20.6703   18.4754   24.8652 N   0  3  0  0  0  0  0  0  0  0  0  0
   20.1483   17.6047   24.9935 H   0  0  0  0  0  0  0  0  0  0  0  0
   21.1947   18.3994   23.9903 H   0  0  0  0  0  0  0  0  0  0  0  0
   21.3518   18.5412   25.6266 H   0  0  0  0  0  0  0  0  0  0  0  0
  1  2  1  0  0  0  0
  1  3  1  0  0  0  0
  1  4  1  0  0  0  0
  1  5  1  0  0  0  0
  5  6  1  0  0  0  0
  5  7  1  0  0  0  0
  5  8  1  0  0  0  0
  8  9  1  0  0  0  0
  8 10  1  0  0  0  0
  8 11  1  0  0  0  0
 11 12  1  0  0  0  0
 11 13  1  0  0  0  0
 11 14  1  0  0  0  0
 14 15  1  0  0  0  0
 14 16  1  0  0  0  0
 14 17  1  0  0  0  0
 17 18  1  0  0  0  0
 17 19  1  0  0  0  0
 19 20  1  0  0  0  0
 19 21  1  0  0  0  0
 19 22  1  0  0  0  0
 17 23  1  0  0  0  0
 23 24  1  0  0  0  0
 23 25  1  0  0  0  0
 23 26  1  0  0  0  0
M  END
> <VM2 Rank>
33

> <Conf_Id>
977

> <Probability>
0.12

> <Sum Probability>
98.67

> <Delta G>
2.961

> <G>
26.673

> <E>
-5.420

> <-TS>
32.093

> <U+W>
-26.881

> <U>
27.054

> <W>
-53.936

> <W(PB)>
-56.225

> <W(SA)>
2.290

> <Valence>
5.138

> <Coulomb>
20.885

> <VdW>
1.031

> <VdW6>
-8.326

> <VdW12>
9.356

> <Bond>
0.283

> <Angle>
1.709

> <Pdih>
3.146

> <Idih>
0.000

> <Tether>
0.000

$$$$
VeraChem MOL file


 26 25  0  0  0  0  0  0  0  0999 V2000     
   19.8667   19.8047   19.2355 C   0  0  0  0  0  0  0  0  0  0  0  0
   20.3350   19.6395   18.2565 H   0  0  0  0  0  0  0  0  0  0  0  0
   18.7841   19.6645   19.1190 H   0  0  0  0  0  0  0  0  0  0  0  0
   20.0473   20.8485   19.5235 H   0  0  0  0  0  0  0  0  0  0  0  0
   20.4423   18.8314   20.2860 C   0  0  0  0  0  0  0  0  0  0  0  0
   21.5301   18.9722   20.3561 H   0  0  0  0  0  0  0  0  0  0  0  0
   20.2772   17.7971   19.9530 H   0  0  0  0  0  0  0  0  0  0  0  0
   19.7985   19.0425   21.6741 C   0  0  0  0  0  0  0  0  0  0  0  0
   19.9654   20.0809   21.9896 H   0  0  0  0  0  0  0  0  0  0  0  0
   18.7120   18.8969   21.5987 H   0  0  0  0  0  0  0  0  0  0  0  0
   20.3798   18.0736   22.7302 C   0  0  0  0  0  0  0  0  0  0  0  0
   21.4541   18.2689   22.8535 H   0  0  0  0  0  0  0  0  0  0  0  0
   20.2961   17.0438   22.3559 H   0  0  0  0  0  0  0  0  0  0  0  0
   19.6830   18.1489   24.1127 C   0  0  0  0  0  0  0  0  0  0  0  0
   18.6251   17.8695   24.0179 H   0  0  0  0  0  0  0  0  0  0  0  0
   20.1359   17.3775   24.7496 H   0  0  0  0  0  0  0  0  0  0  0  0
   19.8189   19.5253   24.8084 C   0  0  1  0  0  0  0  0  0  0  0  0
   20.6609   20.0561   24.3538 H   0  0  0  0  0  0  0  0  0  0  0  0
   18.5472   20.3766   24.6384 C   0  0  0  0  0  0  0  0  0  0  0  0
   18.2974   20.5221   23.5817 H   0  0  0  0  0  0  0  0  0  0  0  0
   18.6844   21.3690   25.0853 H   0  0  0  0  0  0  0  0  0  0  0  0
   17.6863   19.9020   25.1256 H   0  0  0  0  0  0  0  0  0  0  0  0
   20.1517   19.3850   26.2687 N   0  3  0  0  0  0  0  0  0  0  0  0
   21.0214   18.8627   26.4085 H   0  0  0  0  0  0  0  0  0  0  0  0
   20.2712   20.2990   26.7146 H   0  0  0  0  0  0  0  0  0  0  0  0
   19.4116   18.8925   26.7759 H   0  0  0  0  0  0  0  0  0  0  0  0
  1  2  1  0  0  0  0
  1  3  1  0  0  0  0
  1  4  1  0  0  0  0
  1  5  1  0  0  0  0
  5  6  1  0  0  0  0
  5  7  1  0  0  0  0
  5  8  1  0  0  0  0
  8  9  1  0  0  0  0
  8 10  1  0  0  0  0
  8 11  1  0  0  0  0
 11 12  1  0  0  0  0
 11 13  1  0  0  0  0
 11 14  1  0  0  0  0
 14 15  1  0  0  0  0
 14 16  1  0  0  0  0
 14 17  1  0  0  0  0
 17 18  1  0  0  0  0
 17 19  1  0  0  0  0
 19 20  1  0  0  0  0
 19 21  1  0  0  0  0
 19 22  1  0  0  0  0
 17 23  1  0  0  0  0
 23 24  1  0  0  0  0
 23 25  1  0  0  0  0
 23 26  1  0  0  0  0
M  END
> <VM2 Rank>
34

> <Conf_Id>
188

> <Probability>
0.08

> <Sum Probability>
98.75

> <Delta G>
3.206

> <G>
26.919

> <E>
-5.787

> <-TS>
32.706

> <U+W>
-27.249

> <U>
26.735

> <W>
-53.984

> <W(PB)>
-56.284

> <W(SA)>
2.300

> <Valence>
5.862

> <Coulomb>
19.879

> <VdW>
0.994

> <VdW6>
-7.879

> <VdW12>
8.873

> <Bond>
0.209

> <Angle>
1.378

> <Pdih>
4.275

> <Idih>
0.000

> <Tether>
0.000

$$$$
VeraChem MOL file


 26 25  0  0  0  0  0  0  0  0999 V2000     
   20.7414   19.7890   19.6931 C   0  0  0  0  0  0  0  0  0  0  0  0
   19.8040   20.0291   19.1746 H   0  0  0  0  0  0  0  0  0  0  0  0
   21.4072   20.6574   19.6052 H   0  0  0  0  0  0  0  0  0  0  0  0
   21.2154   18.9477   19.1709 H   0  0  0  0  0  0  0  0  0  0  0  0
   20.4832   19.4483   21.1761 C   0  0  0  0  0  0  0  0  0  0  0  0
   20.0469   20.3284   21.6659 H   0  0  0  0  0  0  0  0  0  0  0  0
   21.4403   19.2372   21.6732 H   0  0  0  0  0  0  0  0  0  0  0  0
   19.5334   18.2378   21.3253 C   0  0  0  0  0  0  0  0  0  0  0  0
   18.5406   18.5043   20.9371 H   0  0  0  0  0  0  0  0  0  0  0  0
   19.8984   17.4193   20.6895 H   0  0  0  0  0  0  0  0  0  0  0  0
   19.3948   17.6972   22.7722 C   0  0  0  0  0  0  0  0  0  0  0  0
   20.3625   17.3175   23.1241 H   0  0  0  0  0  0  0  0  0  0  0  0
   18.7347   16.8197   22.7317 H   0  0  0  0  0  0  0  0  0  0  0  0
   18.7904   18.7010   23.7917 C   0  0  0  0  0  0  0  0  0  0  0  0
   17.9972   19.2792   23.2993 H   0  0  0  0  0  0  0  0  0  0  0  0
   18.2962   18.1348   24.5924 H   0  0  0  0  0  0  0  0  0  0  0  0
   19.8154   19.6613   24.4393 C   0  0  1  0  0  0  0  0  0  0  0  0
   20.3657   20.1782   23.6503 H   0  0  0  0  0  0  0  0  0  0  0  0
   19.0913   20.7193   25.2869 C   0  0  0  0  0  0  0  0  0  0  0  0
   18.3911   21.2986   24.6722 H   0  0  0  0  0  0  0  0  0  0  0  0
   19.8090   21.4233   25.7258 H   0  0  0  0  0  0  0  0  0  0  0  0
   18.5250   20.2546   26.1038 H   0  0  0  0  0  0  0  0  0  0  0  0
   20.8381   18.9342   25.2694 N   0  3  0  0  0  0  0  0  0  0  0  0
   20.3988   18.4253   26.0409 H   0  0  0  0  0  0  0  0  0  0  0  0
   21.3605   18.2548   24.7102 H   0  0  0  0  0  0  0  0  0  0  0  0
   21.5178   19.5819   25.6779 H   0  0  0  0  0  0  0  0  0  0  0  0
  1  2  1  0  0  0  0
  1  3  1  0  0  0  0
  1  4  1  0  0  0  0
  1  5  1  0  0  0  0
  5  6  1  0  0  0  0
  5  7  1  0  0  0  0
  5  8  1  0  0  0  0
  8  9  1  0  0  0  0
  8 10  1  0  0  0  0
  8 11  1  0  0  0  0
 11 12  1  0  0  0  0
 11 13  1  0  0  0  0
 11 14  1  0  0  0  0
 14 15  1  0  0  0  0
 14 16  1  0  0  0  0
 14 17  1  0  0  0  0
 17 18  1  0  0  0  0
 17 19  1  0  0  0  0
 19 20  1  0  0  0  0
 19 21  1  0  0  0  0
 19 22  1  0  0  0  0
 17 23  1  0  0  0  0
 23 24  1  0  0  0  0
 23 25  1  0  0  0  0
 23 26  1  0  0  0  0
M  END
> <VM2 Rank>
35

> <Conf_Id>
109

> <Probability>
0.07

> <Sum Probability>
98.82

> <Delta G>
3.249

> <G>
26.962

> <E>
-5.911

> <-TS>
32.873

> <U+W>
-27.373

> <U>
26.753

> <W>
-54.126

> <W(PB)>
-56.392

> <W(SA)>
2.267

> <Valence>
5.252

> <Coulomb>
20.764

> <VdW>
0.737

> <VdW6>
-8.685

> <VdW12>
9.421

> <Bond>
0.256

> <Angle>
1.803

> <Pdih>
3.193

> <Idih>
0.000

> <Tether>
0.000

$$$$
VeraChem MOL file


 26 25  0  0  0  0  0  0  0  0999 V2000     
   20.3159   17.7940   19.6628 C   0  0  0  0  0  0  0  0  0  0  0  0
   20.0962   17.8614   18.5894 H   0  0  0  0  0  0  0  0  0  0  0  0
   21.3916   17.6055   19.7752 H   0  0  0  0  0  0  0  0  0  0  0  0
   19.7731   16.9281   20.0639 H   0  0  0  0  0  0  0  0  0  0  0  0
   19.9018   19.0930   20.3862 C   0  0  0  0  0  0  0  0  0  0  0  0
   18.8287   19.2717   20.2291 H   0  0  0  0  0  0  0  0  0  0  0  0
   20.4338   19.9441   19.9385 H   0  0  0  0  0  0  0  0  0  0  0  0
   20.2032   19.0255   21.8996 C   0  0  0  0  0  0  0  0  0  0  0  0
   19.6714   18.1652   22.3234 H   0  0  0  0  0  0  0  0  0  0  0  0
   21.2783   18.8552   22.0498 H   0  0  0  0  0  0  0  0  0  0  0  0
   19.7738   20.3213   22.6278 C   0  0  0  0  0  0  0  0  0  0  0  0
   18.6840   20.4393   22.5608 H   0  0  0  0  0  0  0  0  0  0  0  0
   20.1982   21.1815   22.0919 H   0  0  0  0  0  0  0  0  0  0  0  0
   20.2306   20.4159   24.1111 C   0  0  0  0  0  0  0  0  0  0  0  0
   21.3276   20.4226   24.1529 H   0  0  0  0  0  0  0  0  0  0  0  0
   19.9196   21.3970   24.4936 H   0  0  0  0  0  0  0  0  0  0  0  0
   19.6967   19.3419   25.0932 C   0  0  1  0  0  0  0  0  0  0  0  0
   19.9341   19.6923   26.1025 H   0  0  0  0  0  0  0  0  0  0  0  0
   18.1688   19.1788   25.0130 C   0  0  0  0  0  0  0  0  0  0  0  0
   17.6681   20.1482   25.1268 H   0  0  0  0  0  0  0  0  0  0  0  0
   17.8099   18.5226   25.8153 H   0  0  0  0  0  0  0  0  0  0  0  0
   17.8577   18.7407   24.0571 H   0  0  0  0  0  0  0  0  0  0  0  0
   20.3973   18.0176   24.9601 N   0  3  0  0  0  0  0  0  0  0  0  0
   20.0649   17.3475   25.6595 H   0  0  0  0  0  0  0  0  0  0  0  0
   20.2412   17.6048   24.0385 H   0  0  0  0  0  0  0  0  0  0  0  0
   21.4086   18.1148   25.0877 H   0  0  0  0  0  0  0  0  0  0  0  0
  1  2  1  0  0  0  0
  1  3  1  0  0  0  0
  1  4  1  0  0  0  0
  1  5  1  0  0  0  0
  5  6  1  0  0  0  0
  5  7  1  0  0  0  0
  5  8  1  0  0  0  0
  8  9  1  0  0  0  0
  8 10  1  0  0  0  0
  8 11  1  0  0  0  0
 11 12  1  0  0  0  0
 11 13  1  0  0  0  0
 11 14  1  0  0  0  0
 14 15  1  0  0  0  0
 14 16  1  0  0  0  0
 14 17  1  0  0  0  0
 17 18  1  0  0  0  0
 17 19  1  0  0  0  0
 19 20  1  0  0  0  0
 19 21  1  0  0  0  0
 19 22  1  0  0  0  0
 17 23  1  0  0  0  0
 23 24  1  0  0  0  0
 23 25  1  0  0  0  0
 23 26  1  0  0  0  0
M  END
> <VM2 Rank>
36

> <Conf_Id>
864

> <Probability>
0.07

> <Sum Probability>
98.89

> <Delta G>
3.301

> <G>
27.013

> <E>
-6.121

> <-TS>
33.134

> <U+W>
-27.583

> <U>
26.681

> <W>
-54.264

> <W(PB)>
-56.533

> <W(SA)>
2.269

> <Valence>
4.633

> <Coulomb>
21.285

> <VdW>
0.764

> <VdW6>
-8.908

> <VdW12>
9.671

> <Bond>
0.277

> <Angle>
2.161

> <Pdih>
2.194

> <Idih>
0.000

> <Tether>
0.000

$$$$
VeraChem MOL file


 26 25  0  0  0  0  0  0  0  0999 V2000     
   19.5280   18.4523   19.2493 C   0  0  0  0  0  0  0  0  0  0  0  0
   19.3350   19.4503   18.8346 H   0  0  0  0  0  0  0  0  0  0  0  0
   19.9867   17.8425   18.4601 H   0  0  0  0  0  0  0  0  0  0  0  0
   18.5631   17.9973   19.5087 H   0  0  0  0  0  0  0  0  0  0  0  0
   20.4528   18.5331   20.4823 C   0  0  0  0  0  0  0  0  0  0  0  0
   21.4209   18.9596   20.1844 H   0  0  0  0  0  0  0  0  0  0  0  0
   20.6542   17.5185   20.8537 H   0  0  0  0  0  0  0  0  0  0  0  0
   19.8306   19.3869   21.6093 C   0  0  0  0  0  0  0  0  0  0  0  0
   19.6314   20.3988   21.2303 H   0  0  0  0  0  0  0  0  0  0  0  0
   18.8597   18.9609   21.8885 H   0  0  0  0  0  0  0  0  0  0  0  0
   20.7611   19.4740   22.8439 C   0  0  0  0  0  0  0  0  0  0  0  0
   21.7094   19.9267   22.5226 H   0  0  0  0  0  0  0  0  0  0  0  0
   21.0145   18.4671   23.1999 H   0  0  0  0  0  0  0  0  0  0  0  0
   20.1789   20.3342   24.0004 C   0  0  0  0  0  0  0  0  0  0  0  0
   21.0075   20.8709   24.4810 H   0  0  0  0  0  0  0  0  0  0  0  0
   19.5267   21.1174   23.5921 H   0  0  0  0  0  0  0  0  0  0  0  0
   19.4222   19.5618   25.1097 C   0  0  1  0  0  0  0  0  0  0  0  0
   19.0700   20.3035   25.8334 H   0  0  0  0  0  0  0  0  0  0  0  0
   18.1890   18.8108   24.5824 C   0  0  0  0  0  0  0  0  0  0  0  0
   18.4752   17.9668   23.9437 H   0  0  0  0  0  0  0  0  0  0  0  0
   17.5400   19.4815   24.0060 H   0  0  0  0  0  0  0  0  0  0  0  0
   17.5982   18.4123   25.4162 H   0  0  0  0  0  0  0  0  0  0  0  0
   20.3254   18.6350   25.8767 N   0  3  0  0  0  0  0  0  0  0  0  0
   21.1224   19.1356   26.2801 H   0  0  0  0  0  0  0  0  0  0  0  0
   19.8277   18.1815   26.6480 H   0  0  0  0  0  0  0  0  0  0  0  0
   20.6984   17.8961   25.2758 H   0  0  0  0  0  0  0  0  0  0  0  0
  1  2  1  0  0  0  0
  1  3  1  0  0  0  0
  1  4  1  0  0  0  0
  1  5  1  0  0  0  0
  5  6  1  0  0  0  0
  5  7  1  0  0  0  0
  5  8  1  0  0  0  0
  8  9  1  0  0  0  0
  8 10  1  0  0  0  0
  8 11  1  0  0  0  0
 11 12  1  0  0  0  0
 11 13  1  0  0  0  0
 11 14  1  0  0  0  0
 14 15  1  0  0  0  0
 14 16  1  0  0  0  0
 14 17  1  0  0  0  0
 17 18  1  0  0  0  0
 17 19  1  0  0  0  0
 19 20  1  0  0  0  0
 19 21  1  0  0  0  0
 19 22  1  0  0  0  0
 17 23  1  0  0  0  0
 23 24  1  0  0  0  0
 23 25  1  0  0  0  0
 23 26  1  0  0  0  0
M  END
> <VM2 Rank>
37

> <Conf_Id>
154

> <Probability>
0.06

> <Sum Probability>
98.96

> <Delta G>
3.322

> <G>
27.034

> <E>
-5.873

> <-TS>
32.907

> <U+W>
-27.335

> <U>
26.848

> <W>
-54.183

> <W(PB)>
-56.440

> <W(SA)>
2.257

> <Valence>
5.824

> <Coulomb>
20.057

> <VdW>
0.968

> <VdW6>
-8.367

> <VdW12>
9.335

> <Bond>
0.267

> <Angle>
1.799

> <Pdih>
3.758

> <Idih>
0.000

> <Tether>
0.000

$$$$
VeraChem MOL file


 26 25  0  0  0  0  0  0  0  0999 V2000     
   19.3700   18.9545   19.1198 C   0  0  0  0  0  0  0  0  0  0  0  0
   19.6741   19.4061   18.1666 H   0  0  0  0  0  0  0  0  0  0  0  0
   19.3614   17.8646   18.9886 H   0  0  0  0  0  0  0  0  0  0  0  0
   18.3443   19.2812   19.3352 H   0  0  0  0  0  0  0  0  0  0  0  0
   20.3339   19.3696   20.2515 C   0  0  0  0  0  0  0  0  0  0  0  0
   20.3460   20.4653   20.3360 H   0  0  0  0  0  0  0  0  0  0  0  0
   21.3560   19.0603   19.9915 H   0  0  0  0  0  0  0  0  0  0  0  0
   19.9284   18.7467   21.6056 C   0  0  0  0  0  0  0  0  0  0  0  0
   18.9028   19.0489   21.8493 H   0  0  0  0  0  0  0  0  0  0  0  0
   19.9176   17.6519   21.5132 H   0  0  0  0  0  0  0  0  0  0  0  0
   20.8997   19.1562   22.7401 C   0  0  0  0  0  0  0  0  0  0  0  0
   20.9763   20.2505   22.8051 H   0  0  0  0  0  0  0  0  0  0  0  0
   21.9042   18.7983   22.4748 H   0  0  0  0  0  0  0  0  0  0  0  0
   20.5171   18.5656   24.1233 C   0  0  0  0  0  0  0  0  0  0  0  0
   19.9664   17.6241   23.9967 H   0  0  0  0  0  0  0  0  0  0  0  0
   21.4475   18.2997   24.6423 H   0  0  0  0  0  0  0  0  0  0  0  0
   19.7287   19.5264   25.0460 C   0  0  1  0  0  0  0  0  0  0  0  0
   20.3293   20.4300   25.1884 H   0  0  0  0  0  0  0  0  0  0  0  0
   18.3707   19.9422   24.4559 C   0  0  0  0  0  0  0  0  0  0  0  0
   17.7610   19.0657   24.2039 H   0  0  0  0  0  0  0  0  0  0  0  0
   18.5036   20.5473   23.5517 H   0  0  0  0  0  0  0  0  0  0  0  0
   17.8084   20.5537   25.1723 H   0  0  0  0  0  0  0  0  0  0  0  0
   19.5396   18.9268   26.4119 N   0  3  0  0  0  0  0  0  0  0  0  0
   20.4354   18.6862   26.8460 H   0  0  0  0  0  0  0  0  0  0  0  0
   19.0610   19.5761   27.0425 H   0  0  0  0  0  0  0  0  0  0  0  0
   18.9784   18.0719   26.3710 H   0  0  0  0  0  0  0  0  0  0  0  0
  1  2  1  0  0  0  0
  1  3  1  0  0  0  0
  1  4  1  0  0  0  0
  1  5  1  0  0  0  0
  5  6  1  0  0  0  0
  5  7  1  0  0  0  0
  5  8  1  0  0  0  0
  8  9  1  0  0  0  0
  8 10  1  0  0  0  0
  8 11  1  0  0  0  0
 11 12  1  0  0  0  0
 11 13  1  0  0  0  0
 11 14  1  0  0  0  0
 14 15  1  0  0  0  0
 14 16  1  0  0  0  0
 14 17  1  0  0  0  0
 17 18  1  0  0  0  0
 17 19  1  0  0  0  0
 19 20  1  0  0  0  0
 19 21  1  0  0  0  0
 19 22  1  0  0  0  0
 17 23  1  0  0  0  0
 23 24  1  0  0  0  0
 23 25  1  0  0  0  0
 23 26  1  0  0  0  0
M  END
> <VM2 Rank>
38

> <Conf_Id>
573

> <Probability>
0.06

> <Sum Probability>
99.02

> <Delta G>
3.322

> <G>
27.034

> <E>
-5.809

> <-TS>
32.843

> <U+W>
-27.271

> <U>
26.589

> <W>
-53.861

> <W(PB)>
-56.176

> <W(SA)>
2.315

> <Valence>
5.830

> <Coulomb>
19.752

> <VdW>
1.008

> <VdW6>
-7.925

> <VdW12>
8.933

> <Bond>
0.235

> <Angle>
1.652

> <Pdih>
3.942

> <Idih>
0.000

> <Tether>
0.000

$$$$
VeraChem MOL file


 26 25  0  0  0  0  0  0  0  0999 V2000     
   18.9945   18.4486   20.0746 C   0  0  0  0  0  0  0  0  0  0  0  0
   18.7426   19.2986   19.4272 H   0  0  0  0  0  0  0  0  0  0  0  0
   18.7567   17.5294   19.5239 H   0  0  0  0  0  0  0  0  0  0  0  0
   18.3400   18.4873   20.9520 H   0  0  0  0  0  0  0  0  0  0  0  0
   20.4917   18.4744   20.4615 C   0  0  0  0  0  0  0  0  0  0  0  0
   21.0806   18.3976   19.5366 H   0  0  0  0  0  0  0  0  0  0  0  0
   20.7478   17.5870   21.0569 H   0  0  0  0  0  0  0  0  0  0  0  0
   20.9148   19.7656   21.2085 C   0  0  0  0  0  0  0  0  0  0  0  0
   21.9421   20.0128   20.9070 H   0  0  0  0  0  0  0  0  0  0  0  0
   20.2987   20.6140   20.8803 H   0  0  0  0  0  0  0  0  0  0  0  0
   20.8971   19.6586   22.7553 C   0  0  0  0  0  0  0  0  0  0  0  0
   21.2853   20.5998   23.1689 H   0  0  0  0  0  0  0  0  0  0  0  0
   21.5977   18.8727   23.0676 H   0  0  0  0  0  0  0  0  0  0  0  0
   19.4972   19.3850   23.3583 C   0  0  0  0  0  0  0  0  0  0  0  0
   18.7771   20.0904   22.9228 H   0  0  0  0  0  0  0  0  0  0  0  0
   19.1644   18.3759   23.0850 H   0  0  0  0  0  0  0  0  0  0  0  0
   19.4684   19.5281   24.8953 C   0  0  1  0  0  0  0  0  0  0  0  0
   19.8191   20.5323   25.1526 H   0  0  0  0  0  0  0  0  0  0  0  0
   18.0324   19.3695   25.4199 C   0  0  0  0  0  0  0  0  0  0  0  0
   17.6328   18.3740   25.1891 H   0  0  0  0  0  0  0  0  0  0  0  0
   17.3679   20.1172   24.9692 H   0  0  0  0  0  0  0  0  0  0  0  0
   17.9989   19.5075   26.5077 H   0  0  0  0  0  0  0  0  0  0  0  0
   20.3919   18.5582   25.5806 N   0  3  0  0  0  0  0  0  0  0  0  0
   20.1269   17.5891   25.3860 H   0  0  0  0  0  0  0  0  0  0  0  0
   21.3597   18.6817   25.2714 H   0  0  0  0  0  0  0  0  0  0  0  0
   20.3772   18.6820   26.5969 H   0  0  0  0  0  0  0  0  0  0  0  0
  1  2  1  0  0  0  0
  1  3  1  0  0  0  0
  1  4  1  0  0  0  0
  1  5  1  0  0  0  0
  5  6  1  0  0  0  0
  5  7  1  0  0  0  0
  5  8  1  0  0  0  0
  8  9  1  0  0  0  0
  8 10  1  0  0  0  0
  8 11  1  0  0  0  0
 11 12  1  0  0  0  0
 11 13  1  0  0  0  0
 11 14  1  0  0  0  0
 14 15  1  0  0  0  0
 14 16  1  0  0  0  0
 14 17  1  0  0  0  0
 17 18  1  0  0  0  0
 17 19  1  0  0  0  0
 19 20  1  0  0  0  0
 19 21  1  0  0  0  0
 19 22  1  0  0  0  0
 17 23  1  0  0  0  0
 23 24  1  0  0  0  0
 23 25  1  0  0  0  0
 23 26  1  0  0  0  0
M  END
> <VM2 Rank>
39

> <Conf_Id>
476

> <Probability>
0.06

> <Sum Probability>
99.08

> <Delta G>
3.347

> <G>
27.059

> <E>
-5.842

> <-TS>
32.901

> <U+W>
-27.304

> <U>
26.796

> <W>
-54.100

> <W(PB)>
-56.404

> <W(SA)>
2.304

> <Valence>
5.706

> <Coulomb>
20.107

> <VdW>
0.982

> <VdW6>
-8.397

> <VdW12>
9.379

> <Bond>
0.254

> <Angle>
1.645

> <Pdih>
3.808

> <Idih>
0.000

> <Tether>
0.000

$$$$
VeraChem MOL file


 26 25  0  0  0  0  0  0  0  0999 V2000     
   19.4954   20.0153   20.1475 C   0  0  0  0  0  0  0  0  0  0  0  0
   19.6918   20.7139   20.9701 H   0  0  0  0  0  0  0  0  0  0  0  0
   19.5603   20.5850   19.2114 H   0  0  0  0  0  0  0  0  0  0  0  0
   18.4677   19.6417   20.2424 H   0  0  0  0  0  0  0  0  0  0  0  0
   20.5126   18.8533   20.1431 C   0  0  0  0  0  0  0  0  0  0  0  0
   21.5321   19.2618   20.1038 H   0  0  0  0  0  0  0  0  0  0  0  0
   20.3815   18.2741   19.2183 H   0  0  0  0  0  0  0  0  0  0  0  0
   20.3861   17.8884   21.3497 C   0  0  0  0  0  0  0  0  0  0  0  0
   19.4035   17.3970   21.3393 H   0  0  0  0  0  0  0  0  0  0  0  0
   21.1206   17.0836   21.2070 H   0  0  0  0  0  0  0  0  0  0  0  0
   20.6475   18.5420   22.7317 C   0  0  0  0  0  0  0  0  0  0  0  0
   21.3341   19.3927   22.6209 H   0  0  0  0  0  0  0  0  0  0  0  0
   21.1680   17.8093   23.3625 H   0  0  0  0  0  0  0  0  0  0  0  0
   19.3496   18.9860   23.4555 C   0  0  0  0  0  0  0  0  0  0  0  0
   18.7626   19.6363   22.7973 H   0  0  0  0  0  0  0  0  0  0  0  0
   18.7226   18.1075   23.6582 H   0  0  0  0  0  0  0  0  0  0  0  0
   19.6255   19.7396   24.7746 C   0  0  1  0  0  0  0  0  0  0  0  0
   20.2709   20.5948   24.5518 H   0  0  0  0  0  0  0  0  0  0  0  0
   18.3122   20.2696   25.3723 C   0  0  0  0  0  0  0  0  0  0  0  0
   17.8053   20.9400   24.6671 H   0  0  0  0  0  0  0  0  0  0  0  0
   18.5049   20.8376   26.2907 H   0  0  0  0  0  0  0  0  0  0  0  0
   17.6267   19.4482   25.6158 H   0  0  0  0  0  0  0  0  0  0  0  0
   20.3590   18.8939   25.7797 N   0  3  0  0  0  0  0  0  0  0  0  0
   19.8159   18.0661   26.0386 H   0  0  0  0  0  0  0  0  0  0  0  0
   21.2577   18.5707   25.4118 H   0  0  0  0  0  0  0  0  0  0  0  0
   20.5505   19.4160   26.6394 H   0  0  0  0  0  0  0  0  0  0  0  0
  1  2  1  0  0  0  0
  1  3  1  0  0  0  0
  1  4  1  0  0  0  0
  1  5  1  0  0  0  0
  5  6  1  0  0  0  0
  5  7  1  0  0  0  0
  5  8  1  0  0  0  0
  8  9  1  0  0  0  0
  8 10  1  0  0  0  0
  8 11  1  0  0  0  0
 11 12  1  0  0  0  0
 11 13  1  0  0  0  0
 11 14  1  0  0  0  0
 14 15  1  0  0  0  0
 14 16  1  0  0  0  0
 14 17  1  0  0  0  0
 17 18  1  0  0  0  0
 17 19  1  0  0  0  0
 19 20  1  0  0  0  0
 19 21  1  0  0  0  0
 19 22  1  0  0  0  0
 17 23  1  0  0  0  0
 23 24  1  0  0  0  0
 23 25  1  0  0  0  0
 23 26  1  0  0  0  0
M  END
> <VM2 Rank>
40

> <Conf_Id>
700

> <Probability>
0.06

> <Sum Probability>
99.14

> <Delta G>
3.385

> <G>
27.097

> <E>
-5.838

> <-TS>
32.935

> <U+W>
-27.300

> <U>
26.787

> <W>
-54.087

> <W(PB)>
-56.349

> <W(SA)>
2.262

> <Valence>
5.742

> <Coulomb>
20.023

> <VdW>
1.022

> <VdW6>
-8.392

> <VdW12>
9.414

> <Bond>
0.261

> <Angle>
1.577

> <Pdih>
3.904

> <Idih>
0.000

> <Tether>
0.000

$$$$
VeraChem MOL file


 26 25  0  0  0  0  0  0  0  0999 V2000     
   19.5740   17.7156   20.5300 C   0  0  0  0  0  0  0  0  0  0  0  0
   19.6656   16.9195   19.7798 H   0  0  0  0  0  0  0  0  0  0  0  0
   19.7839   17.2675   21.5088 H   0  0  0  0  0  0  0  0  0  0  0  0
   18.5345   18.0679   20.5206 H   0  0  0  0  0  0  0  0  0  0  0  0
   20.5557   18.8659   20.2178 C   0  0  0  0  0  0  0  0  0  0  0  0
   20.4277   19.1625   19.1674 H   0  0  0  0  0  0  0  0  0  0  0  0
   21.5875   18.4981   20.3060 H   0  0  0  0  0  0  0  0  0  0  0  0
   20.3735   20.1219   21.1078 C   0  0  0  0  0  0  0  0  0  0  0  0
   21.0904   20.8788   20.7604 H   0  0  0  0  0  0  0  0  0  0  0  0
   19.3794   20.5597   20.9435 H   0  0  0  0  0  0  0  0  0  0  0  0
   20.6166   19.8863   22.6216 C   0  0  0  0  0  0  0  0  0  0  0  0
   21.0756   20.7912   23.0436 H   0  0  0  0  0  0  0  0  0  0  0  0
   21.3508   19.0812   22.7562 H   0  0  0  0  0  0  0  0  0  0  0  0
   19.3169   19.5920   23.4156 C   0  0  0  0  0  0  0  0  0  0  0  0
   18.6140   20.4209   23.2586 H   0  0  0  0  0  0  0  0  0  0  0  0
   18.8227   18.6925   23.0319 H   0  0  0  0  0  0  0  0  0  0  0  0
   19.5635   19.4335   24.9315 C   0  0  1  0  0  0  0  0  0  0  0  0
   20.0739   20.3321   25.2918 H   0  0  0  0  0  0  0  0  0  0  0  0
   18.2272   19.3045   25.6801 C   0  0  0  0  0  0  0  0  0  0  0  0
   18.3939   19.2278   26.7616 H   0  0  0  0  0  0  0  0  0  0  0  0
   17.6743   18.4142   25.3553 H   0  0  0  0  0  0  0  0  0  0  0  0
   17.5945   20.1831   25.5028 H   0  0  0  0  0  0  0  0  0  0  0  0
   20.4605   18.2683   25.2497 N   0  3  0  0  0  0  0  0  0  0  0  0
   20.0480   17.3844   24.9404 H   0  0  0  0  0  0  0  0  0  0  0  0
   21.3710   18.3614   24.7918 H   0  0  0  0  0  0  0  0  0  0  0  0
   20.6308   18.1917   26.2564 H   0  0  0  0  0  0  0  0  0  0  0  0
  1  2  1  0  0  0  0
  1  3  1  0  0  0  0
  1  4  1  0  0  0  0
  1  5  1  0  0  0  0
  5  6  1  0  0  0  0
  5  7  1  0  0  0  0
  5  8  1  0  0  0  0
  8  9  1  0  0  0  0
  8 10  1  0  0  0  0
  8 11  1  0  0  0  0
 11 12  1  0  0  0  0
 11 13  1  0  0  0  0
 11 14  1  0  0  0  0
 14 15  1  0  0  0  0
 14 16  1  0  0  0  0
 14 17  1  0  0  0  0
 17 18  1  0  0  0  0
 17 19  1  0  0  0  0
 19 20  1  0  0  0  0
 19 21  1  0  0  0  0
 19 22  1  0  0  0  0
 17 23  1  0  0  0  0
 23 24  1  0  0  0  0
 23 25  1  0  0  0  0
 23 26  1  0  0  0  0
M  END
> <VM2 Rank>
41

> <Conf_Id>
555

> <Probability>
0.05

> <Sum Probability>
99.19

> <Delta G>
3.467

> <G>
27.179

> <E>
-5.706

> <-TS>
32.886

> <U+W>
-27.168

> <U>
27.046

> <W>
-54.215

> <W(PB)>
-56.481

> <W(SA)>
2.266

> <Valence>
5.686

> <Coulomb>
20.401

> <VdW>
0.959

> <VdW6>
-8.445

> <VdW12>
9.404

> <Bond>
0.263

> <Angle>
1.662

> <Pdih>
3.760

> <Idih>
0.000

> <Tether>
0.000

$$$$
VeraChem MOL file


 26 25  0  0  0  0  0  0  0  0999 V2000     
   21.2362   19.3280   19.8745 C   0  0  0  0  0  0  0  0  0  0  0  0
   21.9022   18.4861   20.1043 H   0  0  0  0  0  0  0  0  0  0  0  0
   20.6586   19.0718   18.9767 H   0  0  0  0  0  0  0  0  0  0  0  0
   21.8624   20.1973   19.6350 H   0  0  0  0  0  0  0  0  0  0  0  0
   20.3045   19.6388   21.0650 C   0  0  0  0  0  0  0  0  0  0  0  0
   19.6743   20.5034   20.8143 H   0  0  0  0  0  0  0  0  0  0  0  0
   20.9172   19.9344   21.9239 H   0  0  0  0  0  0  0  0  0  0  0  0
   19.4090   18.4265   21.4171 C   0  0  0  0  0  0  0  0  0  0  0  0
   18.8473   18.1477   20.5147 H   0  0  0  0  0  0  0  0  0  0  0  0
   20.0287   17.5547   21.6681 H   0  0  0  0  0  0  0  0  0  0  0  0
   18.3884   18.7000   22.5531 C   0  0  0  0  0  0  0  0  0  0  0  0
   17.5148   18.0567   22.3786 H   0  0  0  0  0  0  0  0  0  0  0  0
   18.0062   19.7272   22.4881 H   0  0  0  0  0  0  0  0  0  0  0  0
   18.9058   18.3881   23.9840 C   0  0  0  0  0  0  0  0  0  0  0  0
   18.0732   18.5009   24.6910 H   0  0  0  0  0  0  0  0  0  0  0  0
   19.1912   17.3286   24.0237 H   0  0  0  0  0  0  0  0  0  0  0  0
   20.0970   19.2401   24.4772 C   0  0  1  0  0  0  0  0  0  0  0  0
   20.9199   19.1281   23.7666 H   0  0  0  0  0  0  0  0  0  0  0  0
   19.7323   20.7317   24.5878 C   0  0  0  0  0  0  0  0  0  0  0  0
   19.4569   21.1505   23.6133 H   0  0  0  0  0  0  0  0  0  0  0  0
   20.5850   21.3112   24.9623 H   0  0  0  0  0  0  0  0  0  0  0  0
   18.8903   20.8832   25.2746 H   0  0  0  0  0  0  0  0  0  0  0  0
   20.6148   18.7348   25.7954 N   0  3  0  0  0  0  0  0  0  0  0  0
   19.9034   18.8032   26.5280 H   0  0  0  0  0  0  0  0  0  0  0  0
   20.9026   17.7538   25.7370 H   0  0  0  0  0  0  0  0  0  0  0  0
   21.4280   19.2722   26.1090 H   0  0  0  0  0  0  0  0  0  0  0  0
  1  2  1  0  0  0  0
  1  3  1  0  0  0  0
  1  4  1  0  0  0  0
  1  5  1  0  0  0  0
  5  6  1  0  0  0  0
  5  7  1  0  0  0  0
  5  8  1  0  0  0  0
  8  9  1  0  0  0  0
  8 10  1  0  0  0  0
  8 11  1  0  0  0  0
 11 12  1  0  0  0  0
 11 13  1  0  0  0  0
 11 14  1  0  0  0  0
 14 15  1  0  0  0  0
 14 16  1  0  0  0  0
 14 17  1  0  0  0  0
 17 18  1  0  0  0  0
 17 19  1  0  0  0  0
 19 20  1  0  0  0  0
 19 21  1  0  0  0  0
 19 22  1  0  0  0  0
 17 23  1  0  0  0  0
 23 24  1  0  0  0  0
 23 25  1  0  0  0  0
 23 26  1  0  0  0  0
M  END
> <VM2 Rank>
42

> <Conf_Id>
989

> <Probability>
0.05

> <Sum Probability>
99.24

> <Delta G>
3.473

> <G>
27.185

> <E>
-6.001

> <-TS>
33.186

> <U+W>
-27.463

> <U>
26.923

> <W>
-54.386

> <W(PB)>
-56.637

> <W(SA)>
2.251

> <Valence>
5.933

> <Coulomb>
20.334

> <VdW>
0.657

> <VdW6>
-9.078

> <VdW12>
9.735

> <Bond>
0.268

> <Angle>
2.252

> <Pdih>
3.412

> <Idih>
0.000

> <Tether>
0.000

$$$$
VeraChem MOL file


 26 25  0  0  0  0  0  0  0  0999 V2000     
   21.2368   19.1530   19.8069 C   0  0  0  0  0  0  0  0  0  0  0  0
   20.6517   19.6718   19.0363 H   0  0  0  0  0  0  0  0  0  0  0  0
   22.2503   19.5746   19.8003 H   0  0  0  0  0  0  0  0  0  0  0  0
   21.3103   18.0943   19.5256 H   0  0  0  0  0  0  0  0  0  0  0  0
   20.5890   19.3132   21.1986 C   0  0  0  0  0  0  0  0  0  0  0  0
   20.5515   20.3793   21.4626 H   0  0  0  0  0  0  0  0  0  0  0  0
   21.2265   18.8145   21.9400 H   0  0  0  0  0  0  0  0  0  0  0  0
   19.1660   18.7104   21.2374 C   0  0  0  0  0  0  0  0  0  0  0  0
   18.5955   19.0917   20.3792 H   0  0  0  0  0  0  0  0  0  0  0  0
   19.2277   17.6218   21.1014 H   0  0  0  0  0  0  0  0  0  0  0  0
   18.3634   19.0270   22.5261 C   0  0  0  0  0  0  0  0  0  0  0  0
   17.3635   18.5881   22.4039 H   0  0  0  0  0  0  0  0  0  0  0  0
   18.1969   20.1081   22.6057 H   0  0  0  0  0  0  0  0  0  0  0  0
   18.9743   18.4574   23.8362 C   0  0  0  0  0  0  0  0  0  0  0  0
   18.1669   18.3043   24.5646 H   0  0  0  0  0  0  0  0  0  0  0  0
   19.3804   17.4586   23.6287 H   0  0  0  0  0  0  0  0  0  0  0  0
   20.0664   19.3331   24.4978 C   0  0  1  0  0  0  0  0  0  0  0  0
   20.8089   19.6051   23.7447 H   0  0  0  0  0  0  0  0  0  0  0  0
   19.4862   20.6291   25.0930 C   0  0  0  0  0  0  0  0  0  0  0  0
   19.0546   21.2705   24.3167 H   0  0  0  0  0  0  0  0  0  0  0  0
   20.2720   21.2095   25.5920 H   0  0  0  0  0  0  0  0  0  0  0  0
   18.7047   20.4118   25.8317 H   0  0  0  0  0  0  0  0  0  0  0  0
   20.8058   18.5649   25.5581 N   0  3  0  0  0  0  0  0  0  0  0  0
   20.1805   18.2757   26.3150 H   0  0  0  0  0  0  0  0  0  0  0  0
   21.2401   17.7190   25.1781 H   0  0  0  0  0  0  0  0  0  0  0  0
   21.5514   19.1280   25.9772 H   0  0  0  0  0  0  0  0  0  0  0  0
  1  2  1  0  0  0  0
  1  3  1  0  0  0  0
  1  4  1  0  0  0  0
  1  5  1  0  0  0  0
  5  6  1  0  0  0  0
  5  7  1  0  0  0  0
  5  8  1  0  0  0  0
  8  9  1  0  0  0  0
  8 10  1  0  0  0  0
  8 11  1  0  0  0  0
 11 12  1  0  0  0  0
 11 13  1  0  0  0  0
 11 14  1  0  0  0  0
 14 15  1  0  0  0  0
 14 16  1  0  0  0  0
 14 17  1  0  0  0  0
 17 18  1  0  0  0  0
 17 19  1  0  0  0  0
 19 20  1  0  0  0  0
 19 21  1  0  0  0  0
 19 22  1  0  0  0  0
 17 23  1  0  0  0  0
 23 24  1  0  0  0  0
 23 25  1  0  0  0  0
 23 26  1  0  0  0  0
M  END
> <VM2 Rank>
43

> <Conf_Id>
1042

> <Probability>
0.05

> <Sum Probability>
99.29

> <Delta G>
3.520

> <G>
27.232

> <E>
-5.556

> <-TS>
32.788

> <U+W>
-27.018

> <U>
27.379

> <W>
-54.397

> <W(PB)>
-56.652

> <W(SA)>
2.255

> <Valence>
5.925

> <Coulomb>
20.578

> <VdW>
0.876

> <VdW6>
-8.774

> <VdW12>
9.650

> <Bond>
0.273

> <Angle>
2.152

> <Pdih>
3.500

> <Idih>
0.000

> <Tether>
0.000

$$$$
VeraChem MOL file


 26 25  0  0  0  0  0  0  0  0999 V2000     
   18.9272   18.9923   19.9664 C   0  0  0  0  0  0  0  0  0  0  0  0
   18.5232   19.6687   19.2020 H   0  0  0  0  0  0  0  0  0  0  0  0
   18.8669   17.9700   19.5711 H   0  0  0  0  0  0  0  0  0  0  0  0
   18.2729   19.0531   20.8430 H   0  0  0  0  0  0  0  0  0  0  0  0
   20.3893   19.3679   20.3026 C   0  0  0  0  0  0  0  0  0  0  0  0
   20.4509   20.4172   20.6229 H   0  0  0  0  0  0  0  0  0  0  0  0
   20.9773   19.3003   19.3766 H   0  0  0  0  0  0  0  0  0  0  0  0
   21.0331   18.4403   21.3654 C   0  0  0  0  0  0  0  0  0  0  0  0
   20.5802   17.4402   21.3212 H   0  0  0  0  0  0  0  0  0  0  0  0
   22.0896   18.2977   21.0990 H   0  0  0  0  0  0  0  0  0  0  0  0
   20.9880   18.9816   22.8179 C   0  0  0  0  0  0  0  0  0  0  0  0
   21.5395   19.9306   22.8699 H   0  0  0  0  0  0  0  0  0  0  0  0
   21.5343   18.2748   23.4558 H   0  0  0  0  0  0  0  0  0  0  0  0
   19.5579   19.1883   23.3767 C   0  0  0  0  0  0  0  0  0  0  0  0
   19.0536   19.9610   22.7836 H   0  0  0  0  0  0  0  0  0  0  0  0
   18.9750   18.2648   23.2625 H   0  0  0  0  0  0  0  0  0  0  0  0
   19.5453   19.6320   24.8559 C   0  0  1  0  0  0  0  0  0  0  0  0
   20.1676   20.5272   24.9510 H   0  0  0  0  0  0  0  0  0  0  0  0
   18.1156   19.9898   25.2932 C   0  0  0  0  0  0  0  0  0  0  0  0
   18.1035   20.3391   26.3330 H   0  0  0  0  0  0  0  0  0  0  0  0
   17.4480   19.1224   25.2161 H   0  0  0  0  0  0  0  0  0  0  0  0
   17.7058   20.7930   24.6682 H   0  0  0  0  0  0  0  0  0  0  0  0
   20.1317   18.5958   25.7759 N   0  3  0  0  0  0  0  0  0  0  0  0
   19.6017   17.7211   25.7390 H   0  0  0  0  0  0  0  0  0  0  0  0
   21.1008   18.3799   25.5281 H   0  0  0  0  0  0  0  0  0  0  0  0
   20.1289   18.9150   26.7488 H   0  0  0  0  0  0  0  0  0  0  0  0
  1  2  1  0  0  0  0
  1  3  1  0  0  0  0
  1  4  1  0  0  0  0
  1  5  1  0  0  0  0
  5  6  1  0  0  0  0
  5  7  1  0  0  0  0
  5  8  1  0  0  0  0
  8  9  1  0  0  0  0
  8 10  1  0  0  0  0
  8 11  1  0  0  0  0
 11 12  1  0  0  0  0
 11 13  1  0  0  0  0
 11 14  1  0  0  0  0
 14 15  1  0  0  0  0
 14 16  1  0  0  0  0
 14 17  1  0  0  0  0
 17 18  1  0  0  0  0
 17 19  1  0  0  0  0
 19 20  1  0  0  0  0
 19 21  1  0  0  0  0
 19 22  1  0  0  0  0
 17 23  1  0  0  0  0
 23 24  1  0  0  0  0
 23 25  1  0  0  0  0
 23 26  1  0  0  0  0
M  END
> <VM2 Rank>
44

> <Conf_Id>
126

> <Probability>
0.05

> <Sum Probability>
99.33

> <Delta G>
3.527

> <G>
27.239

> <E>
-5.652

> <-TS>
32.891

> <U+W>
-27.114

> <U>
26.879

> <W>
-53.994

> <W(PB)>
-56.259

> <W(SA)>
2.265

> <Valence>
5.789

> <Coulomb>
20.012

> <VdW>
1.078

> <VdW6>
-8.363

> <VdW12>
9.441

> <Bond>
0.261

> <Angle>
1.699

> <Pdih>
3.829

> <Idih>
0.000

> <Tether>
0.000

$$$$
VeraChem MOL file


 26 25  0  0  0  0  0  0  0  0999 V2000     
   19.2976   19.8442   20.2853 C   0  0  0  0  0  0  0  0  0  0  0  0
   19.1325   20.1770   19.2524 H   0  0  0  0  0  0  0  0  0  0  0  0
   18.4168   19.2629   20.5817 H   0  0  0  0  0  0  0  0  0  0  0  0
   19.3623   20.7373   20.9201 H   0  0  0  0  0  0  0  0  0  0  0  0
   20.5846   18.9965   20.3774 C   0  0  0  0  0  0  0  0  0  0  0  0
   21.3885   19.5255   19.8465 H   0  0  0  0  0  0  0  0  0  0  0  0
   20.4384   18.0497   19.8389 H   0  0  0  0  0  0  0  0  0  0  0  0
   21.0666   18.7082   21.8222 C   0  0  0  0  0  0  0  0  0  0  0  0
   22.0203   18.1685   21.7420 H   0  0  0  0  0  0  0  0  0  0  0  0
   21.3104   19.6499   22.3291 H   0  0  0  0  0  0  0  0  0  0  0  0
   20.1049   17.8402   22.6806 C   0  0  0  0  0  0  0  0  0  0  0  0
   20.7059   17.2514   23.3862 H   0  0  0  0  0  0  0  0  0  0  0  0
   19.6101   17.0995   22.0375 H   0  0  0  0  0  0  0  0  0  0  0  0
   19.0303   18.6218   23.4871 C   0  0  0  0  0  0  0  0  0  0  0  0
   18.3342   19.1145   22.8006 H   0  0  0  0  0  0  0  0  0  0  0  0
   18.4266   17.9009   24.0541 H   0  0  0  0  0  0  0  0  0  0  0  0
   19.5992   19.6772   24.4626 C   0  0  1  0  0  0  0  0  0  0  0  0
   20.1699   20.4103   23.8855 H   0  0  0  0  0  0  0  0  0  0  0  0
   18.4560   20.4186   25.1735 C   0  0  0  0  0  0  0  0  0  0  0  0
   17.8501   19.7305   25.7763 H   0  0  0  0  0  0  0  0  0  0  0  0
   17.7961   20.9067   24.4454 H   0  0  0  0  0  0  0  0  0  0  0  0
   18.8518   21.1968   25.8377 H   0  0  0  0  0  0  0  0  0  0  0  0
   20.5488   19.0813   25.4655 N   0  3  0  0  0  0  0  0  0  0  0  0
   21.3361   18.6196   25.0022 H   0  0  0  0  0  0  0  0  0  0  0  0
   20.9347   19.7969   26.0878 H   0  0  0  0  0  0  0  0  0  0  0  0
   20.0829   18.3837   26.0515 H   0  0  0  0  0  0  0  0  0  0  0  0
  1  2  1  0  0  0  0
  1  3  1  0  0  0  0
  1  4  1  0  0  0  0
  1  5  1  0  0  0  0
  5  6  1  0  0  0  0
  5  7  1  0  0  0  0
  5  8  1  0  0  0  0
  8  9  1  0  0  0  0
  8 10  1  0  0  0  0
  8 11  1  0  0  0  0
 11 12  1  0  0  0  0
 11 13  1  0  0  0  0
 11 14  1  0  0  0  0
 14 15  1  0  0  0  0
 14 16  1  0  0  0  0
 14 17  1  0  0  0  0
 17 18  1  0  0  0  0
 17 19  1  0  0  0  0
 19 20  1  0  0  0  0
 19 21  1  0  0  0  0
 19 22  1  0  0  0  0
 17 23  1  0  0  0  0
 23 24  1  0  0  0  0
 23 25  1  0  0  0  0
 23 26  1  0  0  0  0
M  END
> <VM2 Rank>
45

> <Conf_Id>
235

> <Probability>
0.04

> <Sum Probability>
99.37

> <Delta G>
3.612

> <G>
27.325

> <E>
-5.201

> <-TS>
32.526

> <U+W>
-26.663

> <U>
27.543

> <W>
-54.206

> <W(PB)>
-56.436

> <W(SA)>
2.230

> <Valence>
6.185

> <Coulomb>
20.489

> <VdW>
0.869

> <VdW6>
-9.298

> <VdW12>
10.167

> <Bond>
0.324

> <Angle>
2.315

> <Pdih>
3.546

> <Idih>
0.000

> <Tether>
0.000

$$$$
VeraChem MOL file


 26 25  0  0  0  0  0  0  0  0999 V2000     
   20.2806   19.1190   19.3038 C   0  0  0  0  0  0  0  0  0  0  0  0
   20.9372   19.0641   18.4258 H   0  0  0  0  0  0  0  0  0  0  0  0
   19.3309   18.6339   19.0433 H   0  0  0  0  0  0  0  0  0  0  0  0
   20.0829   20.1799   19.5011 H   0  0  0  0  0  0  0  0  0  0  0  0
   20.9428   18.4289   20.5179 C   0  0  0  0  0  0  0  0  0  0  0  0
   21.8733   18.9526   20.7780 H   0  0  0  0  0  0  0  0  0  0  0  0
   21.2347   17.4095   20.2289 H   0  0  0  0  0  0  0  0  0  0  0  0
   20.0224   18.3481   21.7599 C   0  0  0  0  0  0  0  0  0  0  0  0
   19.1039   17.8056   21.4968 H   0  0  0  0  0  0  0  0  0  0  0  0
   20.5268   17.7391   22.5181 H   0  0  0  0  0  0  0  0  0  0  0  0
   19.6536   19.7371   22.3429 C   0  0  0  0  0  0  0  0  0  0  0  0
   19.0632   20.2816   21.5944 H   0  0  0  0  0  0  0  0  0  0  0  0
   20.5592   20.3363   22.5106 H   0  0  0  0  0  0  0  0  0  0  0  0
   18.8168   19.6646   23.6475 C   0  0  0  0  0  0  0  0  0  0  0  0
   18.1633   20.5468   23.6752 H   0  0  0  0  0  0  0  0  0  0  0  0
   18.1469   18.7948   23.6236 H   0  0  0  0  0  0  0  0  0  0  0  0
   19.6582   19.6632   24.9455 C   0  0  1  0  0  0  0  0  0  0  0  0
   20.2978   20.5511   24.9357 H   0  0  0  0  0  0  0  0  0  0  0  0
   18.7388   19.7491   26.1745 C   0  0  0  0  0  0  0  0  0  0  0  0
   18.0736   18.8785   26.2341 H   0  0  0  0  0  0  0  0  0  0  0  0
   18.1169   20.6521   26.1347 H   0  0  0  0  0  0  0  0  0  0  0  0
   19.3284   19.7926   27.0986 H   0  0  0  0  0  0  0  0  0  0  0  0
   20.5747   18.4781   25.0620 N   0  3  0  0  0  0  0  0  0  0  0  0
   21.1307   18.5182   25.9209 H   0  0  0  0  0  0  0  0  0  0  0  0
   20.0488   17.6004   25.0765 H   0  0  0  0  0  0  0  0  0  0  0  0
   21.2274   18.4383   24.2747 H   0  0  0  0  0  0  0  0  0  0  0  0
  1  2  1  0  0  0  0
  1  3  1  0  0  0  0
  1  4  1  0  0  0  0
  1  5  1  0  0  0  0
  5  6  1  0  0  0  0
  5  7  1  0  0  0  0
  5  8  1  0  0  0  0
  8  9  1  0  0  0  0
  8 10  1  0  0  0  0
  8 11  1  0  0  0  0
 11 12  1  0  0  0  0
 11 13  1  0  0  0  0
 11 14  1  0  0  0  0
 14 15  1  0  0  0  0
 14 16  1  0  0  0  0
 14 17  1  0  0  0  0
 17 18  1  0  0  0  0
 17 19  1  0  0  0  0
 19 20  1  0  0  0  0
 19 21  1  0  0  0  0
 19 22  1  0  0  0  0
 17 23  1  0  0  0  0
 23 24  1  0  0  0  0
 23 25  1  0  0  0  0
 23 26  1  0  0  0  0
M  END
> <VM2 Rank>
46

> <Conf_Id>
277

> <Probability>
0.04

> <Sum Probability>
99.41

> <Delta G>
3.667

> <G>
27.380

> <E>
-5.272

> <-TS>
32.651

> <U+W>
-26.733

> <U>
27.192

> <W>
-53.925

> <W(PB)>
-56.221

> <W(SA)>
2.295

> <Valence>
5.378

> <Coulomb>
20.710

> <VdW>
1.105

> <VdW6>
-8.250

> <VdW12>
9.354

> <Bond>
0.276

> <Angle>
1.582

> <Pdih>
3.520

> <Idih>
0.000

> <Tether>
0.000

$$$$
VeraChem MOL file


 26 25  0  0  0  0  0  0  0  0999 V2000     
   19.3011   17.9062   20.4584 C   0  0  0  0  0  0  0  0  0  0  0  0
   18.7629   17.5173   19.5844 H   0  0  0  0  0  0  0  0  0  0  0  0
   20.0175   17.1393   20.7804 H   0  0  0  0  0  0  0  0  0  0  0  0
   18.5636   18.0549   21.2565 H   0  0  0  0  0  0  0  0  0  0  0  0
   20.0190   19.2270   20.1055 C   0  0  0  0  0  0  0  0  0  0  0  0
   19.2708   19.9932   19.8586 H   0  0  0  0  0  0  0  0  0  0  0  0
   20.6096   19.0735   19.1915 H   0  0  0  0  0  0  0  0  0  0  0  0
   20.9615   19.7594   21.2151 C   0  0  0  0  0  0  0  0  0  0  0  0
   21.7792   19.0466   21.3891 H   0  0  0  0  0  0  0  0  0  0  0  0
   21.4409   20.6705   20.8311 H   0  0  0  0  0  0  0  0  0  0  0  0
   20.2572   20.1114   22.5518 C   0  0  0  0  0  0  0  0  0  0  0  0
   19.2262   20.4286   22.3495 H   0  0  0  0  0  0  0  0  0  0  0  0
   20.7636   20.9817   22.9918 H   0  0  0  0  0  0  0  0  0  0  0  0
   20.2939   18.9584   23.5896 C   0  0  0  0  0  0  0  0  0  0  0  0
   19.7794   18.0719   23.2024 H   0  0  0  0  0  0  0  0  0  0  0  0
   21.3405   18.6635   23.7413 H   0  0  0  0  0  0  0  0  0  0  0  0
   19.6927   19.3407   24.9613 C   0  0  1  0  0  0  0  0  0  0  0  0
   20.1811   20.2570   25.3071 H   0  0  0  0  0  0  0  0  0  0  0  0
   18.1770   19.5964   24.8777 C   0  0  0  0  0  0  0  0  0  0  0  0
   17.6488   18.7232   24.4750 H   0  0  0  0  0  0  0  0  0  0  0  0
   17.9516   20.4585   24.2397 H   0  0  0  0  0  0  0  0  0  0  0  0
   17.7666   19.8134   25.8715 H   0  0  0  0  0  0  0  0  0  0  0  0
   19.9855   18.2885   25.9947 N   0  3  0  0  0  0  0  0  0  0  0  0
   19.6226   18.5560   26.9141 H   0  0  0  0  0  0  0  0  0  0  0  0
   19.5589   17.3916   25.7476 H   0  0  0  0  0  0  0  0  0  0  0  0
   20.9921   18.1321   26.0993 H   0  0  0  0  0  0  0  0  0  0  0  0
  1  2  1  0  0  0  0
  1  3  1  0  0  0  0
  1  4  1  0  0  0  0
  1  5  1  0  0  0  0
  5  6  1  0  0  0  0
  5  7  1  0  0  0  0
  5  8  1  0  0  0  0
  8  9  1  0  0  0  0
  8 10  1  0  0  0  0
  8 11  1  0  0  0  0
 11 12  1  0  0  0  0
 11 13  1  0  0  0  0
 11 14  1  0  0  0  0
 14 15  1  0  0  0  0
 14 16  1  0  0  0  0
 14 17  1  0  0  0  0
 17 18  1  0  0  0  0
 17 19  1  0  0  0  0
 19 20  1  0  0  0  0
 19 21  1  0  0  0  0
 19 22  1  0  0  0  0
 17 23  1  0  0  0  0
 23 24  1  0  0  0  0
 23 25  1  0  0  0  0
 23 26  1  0  0  0  0
M  END
> <VM2 Rank>
47

> <Conf_Id>
214

> <Probability>
0.04

> <Sum Probability>
99.45

> <Delta G>
3.670

> <G>
27.382

> <E>
-5.486

> <-TS>
32.868

> <U+W>
-26.948

> <U>
27.261

> <W>
-54.209

> <W(PB)>
-56.472

> <W(SA)>
2.263

> <Valence>
6.230

> <Coulomb>
19.945

> <VdW>
1.087

> <VdW6>
-8.618

> <VdW12>
9.705

> <Bond>
0.277

> <Angle>
1.929

> <Pdih>
4.024

> <Idih>
0.000

> <Tether>
0.000

$$$$
VeraChem MOL file


 26 25  0  0  0  0  0  0  0  0999 V2000     
   19.2880   18.4522   19.8553 C   0  0  0  0  0  0  0  0  0  0  0  0
   19.3768   18.2444   18.7812 H   0  0  0  0  0  0  0  0  0  0  0  0
   18.7476   17.6149   20.3156 H   0  0  0  0  0  0  0  0  0  0  0  0
   18.6788   19.3578   19.9669 H   0  0  0  0  0  0  0  0  0  0  0  0
   20.6863   18.6276   20.4898 C   0  0  0  0  0  0  0  0  0  0  0  0
   21.1964   19.4849   20.0287 H   0  0  0  0  0  0  0  0  0  0  0  0
   21.2963   17.7444   20.2540 H   0  0  0  0  0  0  0  0  0  0  0  0
   20.6433   18.8073   22.0262 C   0  0  0  0  0  0  0  0  0  0  0  0
   20.1568   17.9291   22.4677 H   0  0  0  0  0  0  0  0  0  0  0  0
   21.6748   18.8273   22.4039 H   0  0  0  0  0  0  0  0  0  0  0  0
   19.9122   20.0992   22.4694 C   0  0  0  0  0  0  0  0  0  0  0  0
   18.8436   20.0272   22.2297 H   0  0  0  0  0  0  0  0  0  0  0  0
   20.2949   20.9396   21.8742 H   0  0  0  0  0  0  0  0  0  0  0  0
   20.0893   20.4608   23.9712 C   0  0  0  0  0  0  0  0  0  0  0  0
   21.1511   20.6501   24.1762 H   0  0  0  0  0  0  0  0  0  0  0  0
   19.5844   21.4202   24.1450 H   0  0  0  0  0  0  0  0  0  0  0  0
   19.5469   19.4519   25.0158 C   0  0  1  0  0  0  0  0  0  0  0  0
   19.5612   19.9623   25.9838 H   0  0  0  0  0  0  0  0  0  0  0  0
   18.0908   19.0411   24.7359 C   0  0  0  0  0  0  0  0  0  0  0  0
   17.6930   18.4460   25.5670 H   0  0  0  0  0  0  0  0  0  0  0  0
   18.0081   18.4393   23.8229 H   0  0  0  0  0  0  0  0  0  0  0  0
   17.4519   19.9259   24.6242 H   0  0  0  0  0  0  0  0  0  0  0  0
   20.4312   18.2480   25.1905 N   0  3  0  0  0  0  0  0  0  0  0  0
   20.0795   17.6302   25.9275 H   0  0  0  0  0  0  0  0  0  0  0  0
   20.4877   17.7003   24.3296 H   0  0  0  0  0  0  0  0  0  0  0  0
   21.3847   18.5180   25.4483 H   0  0  0  0  0  0  0  0  0  0  0  0
  1  2  1  0  0  0  0
  1  3  1  0  0  0  0
  1  4  1  0  0  0  0
  1  5  1  0  0  0  0
  5  6  1  0  0  0  0
  5  7  1  0  0  0  0
  5  8  1  0  0  0  0
  8  9  1  0  0  0  0
  8 10  1  0  0  0  0
  8 11  1  0  0  0  0
 11 12  1  0  0  0  0
 11 13  1  0  0  0  0
 11 14  1  0  0  0  0
 14 15  1  0  0  0  0
 14 16  1  0  0  0  0
 14 17  1  0  0  0  0
 17 18  1  0  0  0  0
 17 19  1  0  0  0  0
 19 20  1  0  0  0  0
 19 21  1  0  0  0  0
 19 22  1  0  0  0  0
 17 23  1  0  0  0  0
 23 24  1  0  0  0  0
 23 25  1  0  0  0  0
 23 26  1  0  0  0  0
M  END
> <VM2 Rank>
48

> <Conf_Id>
544

> <Probability>
0.03

> <Sum Probability>
99.48

> <Delta G>
3.768

> <G>
27.480

> <E>
-5.788

> <-TS>
33.268

> <U+W>
-27.250

> <U>
27.148

> <W>
-54.398

> <W(PB)>
-56.624

> <W(SA)>
2.226

> <Valence>
5.072

> <Coulomb>
21.223

> <VdW>
0.852

> <VdW6>
-9.599

> <VdW12>
10.451

> <Bond>
0.312

> <Angle>
2.307

> <Pdih>
2.452

> <Idih>
0.000

> <Tether>
0.000

$$$$
VeraChem MOL file


 26 25  0  0  0  0  0  0  0  0999 V2000     
   21.0076   19.7122   19.8279 C   0  0  0  0  0  0  0  0  0  0  0  0
   20.4023   20.6227   19.7289 H   0  0  0  0  0  0  0  0  0  0  0  0
   22.0620   19.9942   19.7112 H   0  0  0  0  0  0  0  0  0  0  0  0
   20.7467   19.0368   19.0026 H   0  0  0  0  0  0  0  0  0  0  0  0
   20.7723   19.0360   21.1951 C   0  0  0  0  0  0  0  0  0  0  0  0
   21.0885   19.7254   21.9857 H   0  0  0  0  0  0  0  0  0  0  0  0
   21.4138   18.1471   21.2722 H   0  0  0  0  0  0  0  0  0  0  0  0
   19.2905   18.6277   21.3782 C   0  0  0  0  0  0  0  0  0  0  0  0
   18.6403   19.5105   21.3074 H   0  0  0  0  0  0  0  0  0  0  0  0
   19.0119   17.9798   20.5354 H   0  0  0  0  0  0  0  0  0  0  0  0
   19.0002   17.8561   22.6923 C   0  0  0  0  0  0  0  0  0  0  0  0
   19.8361   17.1877   22.9378 H   0  0  0  0  0  0  0  0  0  0  0  0
   18.1442   17.1923   22.5074 H   0  0  0  0  0  0  0  0  0  0  0  0
   18.6308   18.7498   23.9074 C   0  0  0  0  0  0  0  0  0  0  0  0
   17.7465   19.3474   23.6489 H   0  0  0  0  0  0  0  0  0  0  0  0
   18.3245   18.1016   24.7391 H   0  0  0  0  0  0  0  0  0  0  0  0
   19.7489   19.6947   24.3970 C   0  0  1  0  0  0  0  0  0  0  0  0
   20.0214   20.3614   23.5748 H   0  0  0  0  0  0  0  0  0  0  0  0
   19.2439   20.5619   25.5612 C   0  0  0  0  0  0  0  0  0  0  0  0
   18.3699   21.1514   25.2572 H   0  0  0  0  0  0  0  0  0  0  0  0
   20.0211   21.2637   25.8880 H   0  0  0  0  0  0  0  0  0  0  0  0
   18.9571   19.9446   26.4217 H   0  0  0  0  0  0  0  0  0  0  0  0
   20.9938   18.9497   24.7949 N   0  3  0  0  0  0  0  0  0  0  0  0
   20.8125   18.3132   25.5755 H   0  0  0  0  0  0  0  0  0  0  0  0
   21.3552   18.3901   24.0180 H   0  0  0  0  0  0  0  0  0  0  0  0
   21.7370   19.5902   25.0882 H   0  0  0  0  0  0  0  0  0  0  0  0
  1  2  1  0  0  0  0
  1  3  1  0  0  0  0
  1  4  1  0  0  0  0
  1  5  1  0  0  0  0
  5  6  1  0  0  0  0
  5  7  1  0  0  0  0
  5  8  1  0  0  0  0
  8  9  1  0  0  0  0
  8 10  1  0  0  0  0
  8 11  1  0  0  0  0
 11 12  1  0  0  0  0
 11 13  1  0  0  0  0
 11 14  1  0  0  0  0
 14 15  1  0  0  0  0
 14 16  1  0  0  0  0
 14 17  1  0  0  0  0
 17 18  1  0  0  0  0
 17 19  1  0  0  0  0
 19 20  1  0  0  0  0
 19 21  1  0  0  0  0
 19 22  1  0  0  0  0
 17 23  1  0  0  0  0
 23 24  1  0  0  0  0
 23 25  1  0  0  0  0
 23 26  1  0  0  0  0
M  END
> <VM2 Rank>
49

> <Conf_Id>
307

> <Probability>
0.03

> <Sum Probability>
99.51

> <Delta G>
3.781

> <G>
27.493

> <E>
-5.512

> <-TS>
33.005

> <U+W>
-26.974

> <U>
27.041

> <W>
-54.015

> <W(PB)>
-56.287

> <W(SA)>
2.272

> <Valence>
5.411

> <Coulomb>
21.047

> <VdW>
0.584

> <VdW6>
-8.849

> <VdW12>
9.433

> <Bond>
0.257

> <Angle>
1.922

> <Pdih>
3.232

> <Idih>
0.000

> <Tether>
0.000

$$$$
VeraChem MOL file


 26 25  0  0  0  0  0  0  0  0999 V2000     
   20.4278   17.6843   20.3101 C   0  0  0  0  0  0  0  0  0  0  0  0
   19.9397   16.9150   19.6979 H   0  0  0  0  0  0  0  0  0  0  0  0
   21.4317   17.8498   19.8979 H   0  0  0  0  0  0  0  0  0  0  0  0
   20.5408   17.2793   21.3215 H   0  0  0  0  0  0  0  0  0  0  0  0
   19.6019   18.9917   20.2937 C   0  0  0  0  0  0  0  0  0  0  0  0
   18.5810   18.8031   20.6540 H   0  0  0  0  0  0  0  0  0  0  0  0
   19.4984   19.3120   19.2474 H   0  0  0  0  0  0  0  0  0  0  0  0
   20.2532   20.1456   21.0991 C   0  0  0  0  0  0  0  0  0  0  0  0
   21.3480   20.0564   21.0740 H   0  0  0  0  0  0  0  0  0  0  0  0
   20.0224   21.0904   20.5877 H   0  0  0  0  0  0  0  0  0  0  0  0
   19.7600   20.2771   22.5633 C   0  0  0  0  0  0  0  0  0  0  0  0
   18.6777   20.4625   22.5588 H   0  0  0  0  0  0  0  0  0  0  0  0
   20.2241   21.1705   23.0038 H   0  0  0  0  0  0  0  0  0  0  0  0
   20.0814   19.0526   23.4558 C   0  0  0  0  0  0  0  0  0  0  0  0
   19.4799   18.1925   23.1364 H   0  0  0  0  0  0  0  0  0  0  0  0
   21.1345   18.7784   23.3100 H   0  0  0  0  0  0  0  0  0  0  0  0
   19.8438   19.3056   24.9619 C   0  0  1  0  0  0  0  0  0  0  0  0
   20.4211   20.1873   25.2568 H   0  0  0  0  0  0  0  0  0  0  0  0
   18.3600   19.5674   25.2774 C   0  0  0  0  0  0  0  0  0  0  0  0
   18.0040   20.4814   24.7880 H   0  0  0  0  0  0  0  0  0  0  0  0
   18.2117   19.6983   26.3563 H   0  0  0  0  0  0  0  0  0  0  0  0
   17.7304   18.7322   24.9462 H   0  0  0  0  0  0  0  0  0  0  0  0
   20.3598   18.1636   25.7928 N   0  3  0  0  0  0  0  0  0  0  0  0
   21.3576   17.9998   25.6307 H   0  0  0  0  0  0  0  0  0  0  0  0
   20.2405   18.3454   26.7934 H   0  0  0  0  0  0  0  0  0  0  0  0
   19.8664   17.2926   25.5800 H   0  0  0  0  0  0  0  0  0  0  0  0
  1  2  1  0  0  0  0
  1  3  1  0  0  0  0
  1  4  1  0  0  0  0
  1  5  1  0  0  0  0
  5  6  1  0  0  0  0
  5  7  1  0  0  0  0
  5  8  1  0  0  0  0
  8  9  1  0  0  0  0
  8 10  1  0  0  0  0
  8 11  1  0  0  0  0
 11 12  1  0  0  0  0
 11 13  1  0  0  0  0
 11 14  1  0  0  0  0
 14 15  1  0  0  0  0
 14 16  1  0  0  0  0
 14 17  1  0  0  0  0
 17 18  1  0  0  0  0
 17 19  1  0  0  0  0
 19 20  1  0  0  0  0
 19 21  1  0  0  0  0
 19 22  1  0  0  0  0
 17 23  1  0  0  0  0
 23 24  1  0  0  0  0
 23 25  1  0  0  0  0
 23 26  1  0  0  0  0
M  END
> <VM2 Rank>
50

> <Conf_Id>
191

> <Probability>
0.03

> <Sum Probability>
99.54

> <Delta G>
3.783

> <G>
27.496

> <E>
-5.432

> <-TS>
32.927

> <U+W>
-26.893

> <U>
27.268

> <W>
-54.161

> <W(PB)>
-56.431

> <W(SA)>
2.270

> <Valence>
6.201

> <Coulomb>
19.968

> <VdW>
1.099

> <VdW6>
-8.560

> <VdW12>
9.659

> <Bond>
0.266

> <Angle>
1.902

> <Pdih>
4.034

> <Idih>
0.000

> <Tether>
0.000

$$$$
VeraChem MOL file


 26 25  0  0  0  0  0  0  0  0999 V2000     
   21.1397   19.2457   19.7804 C   0  0  0  0  0  0  0  0  0  0  0  0
   21.2853   19.2293   18.6925 H   0  0  0  0  0  0  0  0  0  0  0  0
   21.6191   20.1533   20.1696 H   0  0  0  0  0  0  0  0  0  0  0  0
   21.6621   18.3752   20.1961 H   0  0  0  0  0  0  0  0  0  0  0  0
   19.6333   19.2213   20.1248 C   0  0  0  0  0  0  0  0  0  0  0  0
   19.1830   18.2925   19.7475 H   0  0  0  0  0  0  0  0  0  0  0  0
   19.1344   20.0430   19.5922 H   0  0  0  0  0  0  0  0  0  0  0  0
   19.3478   19.3645   21.6392 C   0  0  0  0  0  0  0  0  0  0  0  0
   19.7787   20.3093   21.9958 H   0  0  0  0  0  0  0  0  0  0  0  0
   18.2611   19.4378   21.7834 H   0  0  0  0  0  0  0  0  0  0  0  0
   19.8929   18.1838   22.4800 C   0  0  0  0  0  0  0  0  0  0  0  0
   20.9905   18.1778   22.4453 H   0  0  0  0  0  0  0  0  0  0  0  0
   19.5646   17.2392   22.0249 H   0  0  0  0  0  0  0  0  0  0  0  0
   19.4368   18.1983   23.9613 C   0  0  0  0  0  0  0  0  0  0  0  0
   18.3428   18.1243   24.0215 H   0  0  0  0  0  0  0  0  0  0  0  0
   19.8208   17.2824   24.4297 H   0  0  0  0  0  0  0  0  0  0  0  0
   19.9419   19.4251   24.7595 C   0  0  1  0  0  0  0  0  0  0  0  0
   20.8025   19.8460   24.2306 H   0  0  0  0  0  0  0  0  0  0  0  0
   18.8574   20.5111   24.8832 C   0  0  0  0  0  0  0  0  0  0  0  0
   17.9921   20.1425   25.4482 H   0  0  0  0  0  0  0  0  0  0  0  0
   18.5021   20.8407   23.9010 H   0  0  0  0  0  0  0  0  0  0  0  0
   19.2514   21.3923   25.4044 H   0  0  0  0  0  0  0  0  0  0  0  0
   20.4383   19.0382   26.1258 N   0  3  0  0  0  0  0  0  0  0  0  0
   19.6914   18.6289   26.6935 H   0  0  0  0  0  0  0  0  0  0  0  0
   21.1956   18.3510   26.0709 H   0  0  0  0  0  0  0  0  0  0  0  0
   20.8000   19.8491   26.6358 H   0  0  0  0  0  0  0  0  0  0  0  0
  1  2  1  0  0  0  0
  1  3  1  0  0  0  0
  1  4  1  0  0  0  0
  1  5  1  0  0  0  0
  5  6  1  0  0  0  0
  5  7  1  0  0  0  0
  5  8  1  0  0  0  0
  8  9  1  0  0  0  0
  8 10  1  0  0  0  0
  8 11  1  0  0  0  0
 11 12  1  0  0  0  0
 11 13  1  0  0  0  0
 11 14  1  0  0  0  0
 14 15  1  0  0  0  0
 14 16  1  0  0  0  0
 14 17  1  0  0  0  0
 17 18  1  0  0  0  0
 17 19  1  0  0  0  0
 19 20  1  0  0  0  0
 19 21  1  0  0  0  0
 19 22  1  0  0  0  0
 17 23  1  0  0  0  0
 23 24  1  0  0  0  0
 23 25  1  0  0  0  0
 23 26  1  0  0  0  0
M  END
> <VM2 Rank>
51

> <Conf_Id>
190

> <Probability>
0.03

> <Sum Probability>
99.57

> <Delta G>
3.789

> <G>
27.501

> <E>
-5.330

> <-TS>
32.831

> <U+W>
-26.792

> <U>
27.317

> <W>
-54.109

> <W(PB)>
-56.370

> <W(SA)>
2.261

> <Valence>
6.336

> <Coulomb>
19.872

> <VdW>
1.110

> <VdW6>
-8.501

> <VdW12>
9.611

> <Bond>
0.243

> <Angle>
1.598

> <Pdih>
4.495

> <Idih>
0.000

> <Tether>
0.000

$$$$
VeraChem MOL file


 26 25  0  0  0  0  0  0  0  0999 V2000     
   20.0267   18.6010   19.3449 C   0  0  0  0  0  0  0  0  0  0  0  0
   19.1871   19.3065   19.3555 H   0  0  0  0  0  0  0  0  0  0  0  0
   20.4996   18.6685   18.3566 H   0  0  0  0  0  0  0  0  0  0  0  0
   19.6245   17.5855   19.4550 H   0  0  0  0  0  0  0  0  0  0  0  0
   21.0533   18.9161   20.4569 C   0  0  0  0  0  0  0  0  0  0  0  0
   21.4157   19.9478   20.3464 H   0  0  0  0  0  0  0  0  0  0  0  0
   21.9293   18.2670   20.3184 H   0  0  0  0  0  0  0  0  0  0  0  0
   20.5020   18.7031   21.8878 C   0  0  0  0  0  0  0  0  0  0  0  0
   20.1141   17.6794   21.9814 H   0  0  0  0  0  0  0  0  0  0  0  0
   21.3465   18.7917   22.5815 H   0  0  0  0  0  0  0  0  0  0  0  0
   19.4055   19.7239   22.2839 C   0  0  0  0  0  0  0  0  0  0  0  0
   18.6190   19.7271   21.5188 H   0  0  0  0  0  0  0  0  0  0  0  0
   19.8327   20.7362   22.2853 H   0  0  0  0  0  0  0  0  0  0  0  0
   18.7230   19.4503   23.6504 C   0  0  0  0  0  0  0  0  0  0  0  0
   17.9078   20.1790   23.7531 H   0  0  0  0  0  0  0  0  0  0  0  0
   18.2414   18.4636   23.6422 H   0  0  0  0  0  0  0  0  0  0  0  0
   19.6537   19.5734   24.8804 C   0  0  1  0  0  0  0  0  0  0  0  0
   20.3422   20.4069   24.7108 H   0  0  0  0  0  0  0  0  0  0  0  0
   18.8332   19.8771   26.1452 C   0  0  0  0  0  0  0  0  0  0  0  0
   19.4890   19.9805   27.0185 H   0  0  0  0  0  0  0  0  0  0  0  0
   18.1117   19.0766   26.3518 H   0  0  0  0  0  0  0  0  0  0  0  0
   18.2788   20.8174   26.0352 H   0  0  0  0  0  0  0  0  0  0  0  0
   20.4906   18.3432   25.1046 N   0  3  0  0  0  0  0  0  0  0  0  0
   19.9059   17.5281   25.3075 H   0  0  0  0  0  0  0  0  0  0  0  0
   21.0559   18.1188   24.2829 H   0  0  0  0  0  0  0  0  0  0  0  0
   21.1297   18.4649   25.8953 H   0  0  0  0  0  0  0  0  0  0  0  0
  1  2  1  0  0  0  0
  1  3  1  0  0  0  0
  1  4  1  0  0  0  0
  1  5  1  0  0  0  0
  5  6  1  0  0  0  0
  5  7  1  0  0  0  0
  5  8  1  0  0  0  0
  8  9  1  0  0  0  0
  8 10  1  0  0  0  0
  8 11  1  0  0  0  0
 11 12  1  0  0  0  0
 11 13  1  0  0  0  0
 11 14  1  0  0  0  0
 14 15  1  0  0  0  0
 14 16  1  0  0  0  0
 14 17  1  0  0  0  0
 17 18  1  0  0  0  0
 17 19  1  0  0  0  0
 19 20  1  0  0  0  0
 19 21  1  0  0  0  0
 19 22  1  0  0  0  0
 17 23  1  0  0  0  0
 23 24  1  0  0  0  0
 23 25  1  0  0  0  0
 23 26  1  0  0  0  0
M  END
> <VM2 Rank>
52

> <Conf_Id>
854

> <Probability>
0.03

> <Sum Probability>
99.59

> <Delta G>
3.793

> <G>
27.505

> <E>
-5.078

> <-TS>
32.583

> <U+W>
-26.540

> <U>
27.399

> <W>
-53.939

> <W(PB)>
-56.242

> <W(SA)>
2.303

> <Valence>
5.205

> <Coulomb>
21.096

> <VdW>
1.098

> <VdW6>
-8.389

> <VdW12>
9.487

> <Bond>
0.270

> <Angle>
1.912

> <Pdih>
3.023

> <Idih>
0.000

> <Tether>
0.000

$$$$
VeraChem MOL file


 26 25  0  0  0  0  0  0  0  0999 V2000     
   19.8847   20.0810   19.7708 C   0  0  0  0  0  0  0  0  0  0  0  0
   18.9211   20.5170   20.0646 H   0  0  0  0  0  0  0  0  0  0  0  0
   20.6836   20.6475   20.2648 H   0  0  0  0  0  0  0  0  0  0  0  0
   20.0011   20.2231   18.6886 H   0  0  0  0  0  0  0  0  0  0  0  0
   19.9473   18.5786   20.1284 C   0  0  0  0  0  0  0  0  0  0  0  0
   20.9305   18.1724   19.8525 H   0  0  0  0  0  0  0  0  0  0  0  0
   19.2098   18.0394   19.5176 H   0  0  0  0  0  0  0  0  0  0  0  0
   19.6601   18.2908   21.6216 C   0  0  0  0  0  0  0  0  0  0  0  0
   18.6719   18.6885   21.8814 H   0  0  0  0  0  0  0  0  0  0  0  0
   19.5951   17.2025   21.7579 H   0  0  0  0  0  0  0  0  0  0  0  0
   20.7470   18.8507   22.5758 C   0  0  0  0  0  0  0  0  0  0  0  0
   20.8505   19.9373   22.4600 H   0  0  0  0  0  0  0  0  0  0  0  0
   21.7140   18.4208   22.2800 H   0  0  0  0  0  0  0  0  0  0  0  0
   20.4920   18.5066   24.0676 C   0  0  0  0  0  0  0  0  0  0  0  0
   19.9192   17.5737   24.1520 H   0  0  0  0  0  0  0  0  0  0  0  0
   21.4645   18.3027   24.5349 H   0  0  0  0  0  0  0  0  0  0  0  0
   19.8094   19.6286   24.8868 C   0  0  1  0  0  0  0  0  0  0  0  0
   20.4362   20.5236   24.8255 H   0  0  0  0  0  0  0  0  0  0  0  0
   18.4100   19.9878   24.3592 C   0  0  0  0  0  0  0  0  0  0  0  0
   17.7651   19.1020   24.3065 H   0  0  0  0  0  0  0  0  0  0  0  0
   18.4698   20.4369   23.3611 H   0  0  0  0  0  0  0  0  0  0  0  0
   17.9264   20.7230   25.0142 H   0  0  0  0  0  0  0  0  0  0  0  0
   19.7374   19.2638   26.3438 N   0  3  0  0  0  0  0  0  0  0  0  0
   20.6652   19.0674   26.7301 H   0  0  0  0  0  0  0  0  0  0  0  0
   19.3309   20.0216   26.8996 H   0  0  0  0  0  0  0  0  0  0  0  0
   19.1598   18.4322   26.4932 H   0  0  0  0  0  0  0  0  0  0  0  0
  1  2  1  0  0  0  0
  1  3  1  0  0  0  0
  1  4  1  0  0  0  0
  1  5  1  0  0  0  0
  5  6  1  0  0  0  0
  5  7  1  0  0  0  0
  5  8  1  0  0  0  0
  8  9  1  0  0  0  0
  8 10  1  0  0  0  0
  8 11  1  0  0  0  0
 11 12  1  0  0  0  0
 11 13  1  0  0  0  0
 11 14  1  0  0  0  0
 14 15  1  0  0  0  0
 14 16  1  0  0  0  0
 14 17  1  0  0  0  0
 17 18  1  0  0  0  0
 17 19  1  0  0  0  0
 19 20  1  0  0  0  0
 19 21  1  0  0  0  0
 19 22  1  0  0  0  0
 17 23  1  0  0  0  0
 23 24  1  0  0  0  0
 23 25  1  0  0  0  0
 23 26  1  0  0  0  0
M  END
> <VM2 Rank>
53

> <Conf_Id>
1007

> <Probability>
0.03

> <Sum Probability>
99.62

> <Delta G>
3.820

> <G>
27.532

> <E>
-5.393

> <-TS>
32.925

> <U+W>
-26.855

> <U>
27.193

> <W>
-54.048

> <W(PB)>
-56.290

> <W(SA)>
2.242

> <Valence>
6.324

> <Coulomb>
19.778

> <VdW>
1.091

> <VdW6>
-8.627

> <VdW12>
9.718

> <Bond>
0.275

> <Angle>
1.905

> <Pdih>
4.144

> <Idih>
0.000

> <Tether>
0.000

$$$$
VeraChem MOL file


 26 25  0  0  0  0  0  0  0  0999 V2000     
   20.0422   17.6614   20.2047 C   0  0  0  0  0  0  0  0  0  0  0  0
   20.2349   17.2703   19.1973 H   0  0  0  0  0  0  0  0  0  0  0  0
   20.8342   17.2821   20.8619 H   0  0  0  0  0  0  0  0  0  0  0  0
   19.0838   17.2496   20.5466 H   0  0  0  0  0  0  0  0  0  0  0  0
   20.0087   19.2066   20.1869 C   0  0  0  0  0  0  0  0  0  0  0  0
   19.2886   19.5355   19.4246 H   0  0  0  0  0  0  0  0  0  0  0  0
   20.9876   19.5949   19.8727 H   0  0  0  0  0  0  0  0  0  0  0  0
   19.6092   19.8275   21.5471 C   0  0  0  0  0  0  0  0  0  0  0  0
   19.4878   20.9109   21.4102 H   0  0  0  0  0  0  0  0  0  0  0  0
   18.6244   19.4454   21.8400 H   0  0  0  0  0  0  0  0  0  0  0  0
   20.6521   19.5765   22.6671 C   0  0  0  0  0  0  0  0  0  0  0  0
   21.6211   19.9604   22.3195 H   0  0  0  0  0  0  0  0  0  0  0  0
   20.7950   18.5016   22.8297 H   0  0  0  0  0  0  0  0  0  0  0  0
   20.3025   20.2811   24.0080 C   0  0  0  0  0  0  0  0  0  0  0  0
   21.2385   20.6112   24.4775 H   0  0  0  0  0  0  0  0  0  0  0  0
   19.7388   21.2025   23.8112 H   0  0  0  0  0  0  0  0  0  0  0  0
   19.5390   19.4247   25.0489 C   0  0  1  0  0  0  0  0  0  0  0  0
   19.3575   20.0640   25.9185 H   0  0  0  0  0  0  0  0  0  0  0  0
   18.1721   18.9399   24.5398 C   0  0  0  0  0  0  0  0  0  0  0  0
   18.2815   18.1908   23.7467 H   0  0  0  0  0  0  0  0  0  0  0  0
   17.5804   19.7777   24.1507 H   0  0  0  0  0  0  0  0  0  0  0  0
   17.6010   18.4802   25.3556 H   0  0  0  0  0  0  0  0  0  0  0  0
   20.3622   18.2702   25.5515 N   0  3  0  0  0  0  0  0  0  0  0  0
   19.8712   17.7531   26.2863 H   0  0  0  0  0  0  0  0  0  0  0  0
   20.5744   17.6091   24.8006 H   0  0  0  0  0  0  0  0  0  0  0  0
   21.2531   18.5869   25.9444 H   0  0  0  0  0  0  0  0  0  0  0  0
  1  2  1  0  0  0  0
  1  3  1  0  0  0  0
  1  4  1  0  0  0  0
  1  5  1  0  0  0  0
  5  6  1  0  0  0  0
  5  7  1  0  0  0  0
  5  8  1  0  0  0  0
  8  9  1  0  0  0  0
  8 10  1  0  0  0  0
  8 11  1  0  0  0  0
 11 12  1  0  0  0  0
 11 13  1  0  0  0  0
 11 14  1  0  0  0  0
 14 15  1  0  0  0  0
 14 16  1  0  0  0  0
 14 17  1  0  0  0  0
 17 18  1  0  0  0  0
 17 19  1  0  0  0  0
 19 20  1  0  0  0  0
 19 21  1  0  0  0  0
 19 22  1  0  0  0  0
 17 23  1  0  0  0  0
 23 24  1  0  0  0  0
 23 25  1  0  0  0  0
 23 26  1  0  0  0  0
M  END
> <VM2 Rank>
54

> <Conf_Id>
1055

> <Probability>
0.03

> <Sum Probability>
99.65

> <Delta G>
3.833

> <G>
27.545

> <E>
-5.435

> <-TS>
32.981

> <U+W>
-26.897

> <U>
27.552

> <W>
-54.449

> <W(PB)>
-56.690

> <W(SA)>
2.240

> <Valence>
6.310

> <Coulomb>
20.199

> <VdW>
1.044

> <VdW6>
-9.081

> <VdW12>
10.125

> <Bond>
0.308

> <Angle>
2.043

> <Pdih>
3.958

> <Idih>
0.000

> <Tether>
0.000

$$$$
VeraChem MOL file


 26 25  0  0  0  0  0  0  0  0999 V2000     
   19.1308   19.7156   20.1966 C   0  0  0  0  0  0  0  0  0  0  0  0
   18.4109   19.6878   21.0239 H   0  0  0  0  0  0  0  0  0  0  0  0
   19.6892   20.6591   20.2491 H   0  0  0  0  0  0  0  0  0  0  0  0
   18.5555   19.7176   19.2618 H   0  0  0  0  0  0  0  0  0  0  0  0
   20.0834   18.5010   20.2410 C   0  0  0  0  0  0  0  0  0  0  0  0
   20.6711   18.4798   19.3127 H   0  0  0  0  0  0  0  0  0  0  0  0
   19.4919   17.5748   20.2474 H   0  0  0  0  0  0  0  0  0  0  0  0
   21.0624   18.5000   21.4430 C   0  0  0  0  0  0  0  0  0  0  0  0
   21.7102   17.6185   21.3403 H   0  0  0  0  0  0  0  0  0  0  0  0
   21.7333   19.3681   21.3839 H   0  0  0  0  0  0  0  0  0  0  0  0
   20.3792   18.4390   22.8342 C   0  0  0  0  0  0  0  0  0  0  0  0
   21.0049   17.8246   23.4950 H   0  0  0  0  0  0  0  0  0  0  0  0
   19.4191   17.9142   22.7478 H   0  0  0  0  0  0  0  0  0  0  0  0
   20.1944   19.8374   23.4864 C   0  0  0  0  0  0  0  0  0  0  0  0
   21.1782   20.3127   23.5938 H   0  0  0  0  0  0  0  0  0  0  0  0
   19.6204   20.4931   22.8223 H   0  0  0  0  0  0  0  0  0  0  0  0
   19.5081   19.8230   24.8727 C   0  0  1  0  0  0  0  0  0  0  0  0
   19.4943   20.8545   25.2384 H   0  0  0  0  0  0  0  0  0  0  0  0
   18.0489   19.3415   24.7892 C   0  0  0  0  0  0  0  0  0  0  0  0
   17.9855   18.2803   24.5213 H   0  0  0  0  0  0  0  0  0  0  0  0
   17.4898   19.9187   24.0424 H   0  0  0  0  0  0  0  0  0  0  0  0
   17.5462   19.4731   25.7552 H   0  0  0  0  0  0  0  0  0  0  0  0
   20.2809   19.0305   25.8909 N   0  3  0  0  0  0  0  0  0  0  0  0
   21.2409   19.3740   25.9845 H   0  0  0  0  0  0  0  0  0  0  0  0
   19.8454   19.0843   26.8160 H   0  0  0  0  0  0  0  0  0  0  0  0
   20.3307   18.0421   25.6324 H   0  0  0  0  0  0  0  0  0  0  0  0
  1  2  1  0  0  0  0
  1  3  1  0  0  0  0
  1  4  1  0  0  0  0
  1  5  1  0  0  0  0
  5  6  1  0  0  0  0
  5  7  1  0  0  0  0
  5  8  1  0  0  0  0
  8  9  1  0  0  0  0
  8 10  1  0  0  0  0
  8 11  1  0  0  0  0
 11 12  1  0  0  0  0
 11 13  1  0  0  0  0
 11 14  1  0  0  0  0
 14 15  1  0  0  0  0
 14 16  1  0  0  0  0
 14 17  1  0  0  0  0
 17 18  1  0  0  0  0
 17 19  1  0  0  0  0
 19 20  1  0  0  0  0
 19 21  1  0  0  0  0
 19 22  1  0  0  0  0
 17 23  1  0  0  0  0
 23 24  1  0  0  0  0
 23 25  1  0  0  0  0
 23 26  1  0  0  0  0
M  END
> <VM2 Rank>
55

> <Conf_Id>
103

> <Probability>
0.03

> <Sum Probability>
99.68

> <Delta G>
3.877

> <G>
27.590

> <E>
-5.460

> <-TS>
33.049

> <U+W>
-26.922

> <U>
27.276

> <W>
-54.198

> <W(PB)>
-56.419

> <W(SA)>
2.221

> <Valence>
6.240

> <Coulomb>
19.962

> <VdW>
1.074

> <VdW6>
-9.126

> <VdW12>
10.200

> <Bond>
0.305

> <Angle>
1.933

> <Pdih>
4.002

> <Idih>
0.000

> <Tether>
0.000

$$$$
VeraChem MOL file


 26 25  0  0  0  0  0  0  0  0999 V2000     
   21.3205   18.3498   20.5400 C   0  0  0  0  0  0  0  0  0  0  0  0
   20.9830   17.3287   20.7601 H   0  0  0  0  0  0  0  0  0  0  0  0
   22.0910   18.2877   19.7606 H   0  0  0  0  0  0  0  0  0  0  0  0
   21.7958   18.7628   21.4383 H   0  0  0  0  0  0  0  0  0  0  0  0
   20.1464   19.2352   20.0684 C   0  0  0  0  0  0  0  0  0  0  0  0
   19.8040   18.8737   19.0887 H   0  0  0  0  0  0  0  0  0  0  0  0
   20.5063   20.2606   19.9052 H   0  0  0  0  0  0  0  0  0  0  0  0
   18.9350   19.2582   21.0353 C   0  0  0  0  0  0  0  0  0  0  0  0
   18.1524   19.8731   20.5695 H   0  0  0  0  0  0  0  0  0  0  0  0
   18.5046   18.2514   21.1266 H   0  0  0  0  0  0  0  0  0  0  0  0
   19.2390   19.8439   22.4390 C   0  0  0  0  0  0  0  0  0  0  0  0
   18.3582   20.4108   22.7680 H   0  0  0  0  0  0  0  0  0  0  0  0
   20.0626   20.5683   22.3737 H   0  0  0  0  0  0  0  0  0  0  0  0
   19.5563   18.7582   23.5007 C   0  0  0  0  0  0  0  0  0  0  0  0
   18.6686   18.1319   23.6602 H   0  0  0  0  0  0  0  0  0  0  0  0
   20.3351   18.0898   23.1173 H   0  0  0  0  0  0  0  0  0  0  0  0
   20.0336   19.3337   24.8537 C   0  0  1  0  0  0  0  0  0  0  0  0
   20.8957   19.9811   24.6655 H   0  0  0  0  0  0  0  0  0  0  0  0
   18.9418   20.1672   25.5486 C   0  0  0  0  0  0  0  0  0  0  0  0
   18.0295   19.5774   25.7019 H   0  0  0  0  0  0  0  0  0  0  0  0
   18.6829   21.0551   24.9602 H   0  0  0  0  0  0  0  0  0  0  0  0
   19.2886   20.5181   26.5283 H   0  0  0  0  0  0  0  0  0  0  0  0
   20.5154   18.2417   25.7683 N   0  3  0  0  0  0  0  0  0  0  0  0
   19.7630   17.5873   25.9987 H   0  0  0  0  0  0  0  0  0  0  0  0
   21.2744   17.7010   25.3438 H   0  0  0  0  0  0  0  0  0  0  0  0
   20.8697   18.6220   26.6505 H   0  0  0  0  0  0  0  0  0  0  0  0
  1  2  1  0  0  0  0
  1  3  1  0  0  0  0
  1  4  1  0  0  0  0
  1  5  1  0  0  0  0
  5  6  1  0  0  0  0
  5  7  1  0  0  0  0
  5  8  1  0  0  0  0
  8  9  1  0  0  0  0
  8 10  1  0  0  0  0
  8 11  1  0  0  0  0
 11 12  1  0  0  0  0
 11 13  1  0  0  0  0
 11 14  1  0  0  0  0
 14 15  1  0  0  0  0
 14 16  1  0  0  0  0
 14 17  1  0  0  0  0
 17 18  1  0  0  0  0
 17 19  1  0  0  0  0
 19 20  1  0  0  0  0
 19 21  1  0  0  0  0
 19 22  1  0  0  0  0
 17 23  1  0  0  0  0
 23 24  1  0  0  0  0
 23 25  1  0  0  0  0
 23 26  1  0  0  0  0
M  END
> <VM2 Rank>
56

> <Conf_Id>
460

> <Probability>
0.03

> <Sum Probability>
99.70

> <Delta G>
3.883

> <G>
27.595

> <E>
-5.377

> <-TS>
32.973

> <U+W>
-26.839

> <U>
27.458

> <W>
-54.298

> <W(PB)>
-56.574

> <W(SA)>
2.276

> <Valence>
6.292

> <Coulomb>
20.019

> <VdW>
1.147

> <VdW6>
-8.552

> <VdW12>
9.699

> <Bond>
0.273

> <Angle>
1.838

> <Pdih>
4.181

> <Idih>
0.000

> <Tether>
0.000

$$$$
VeraChem MOL file


 26 25  0  0  0  0  0  0  0  0999 V2000     
   19.8013   20.4161   20.7481 C   0  0  0  0  0  0  0  0  0  0  0  0
   19.3792   20.8501   19.8325 H   0  0  0  0  0  0  0  0  0  0  0  0
   19.0683   20.5664   21.5470 H   0  0  0  0  0  0  0  0  0  0  0  0
   20.7045   20.9869   20.9999 H   0  0  0  0  0  0  0  0  0  0  0  0
   20.1316   18.9211   20.5305 C   0  0  0  0  0  0  0  0  0  0  0  0
   20.7841   18.8480   19.6491 H   0  0  0  0  0  0  0  0  0  0  0  0
   19.2200   18.3622   20.2773 H   0  0  0  0  0  0  0  0  0  0  0  0
   20.8576   18.2548   21.7280 C   0  0  0  0  0  0  0  0  0  0  0  0
   21.5172   17.4738   21.3249 H   0  0  0  0  0  0  0  0  0  0  0  0
   21.5277   18.9743   22.2168 H   0  0  0  0  0  0  0  0  0  0  0  0
   19.9248   17.5728   22.7654 C   0  0  0  0  0  0  0  0  0  0  0  0
   20.5456   17.0259   23.4876 H   0  0  0  0  0  0  0  0  0  0  0  0
   19.3261   16.8053   22.2559 H   0  0  0  0  0  0  0  0  0  0  0  0
   18.9680   18.5180   23.5366 C   0  0  0  0  0  0  0  0  0  0  0  0
   18.2204   18.9173   22.8404 H   0  0  0  0  0  0  0  0  0  0  0  0
   18.4034   17.9289   24.2713 H   0  0  0  0  0  0  0  0  0  0  0  0
   19.6808   19.6825   24.2594 C   0  0  1  0  0  0  0  0  0  0  0  0
   20.2467   20.2531   23.5171 H   0  0  0  0  0  0  0  0  0  0  0  0
   18.6510   20.6232   24.9045 C   0  0  0  0  0  0  0  0  0  0  0  0
   18.0565   20.1002   25.6641 H   0  0  0  0  0  0  0  0  0  0  0  0
   17.9635   21.0251   24.1498 H   0  0  0  0  0  0  0  0  0  0  0  0
   19.1499   21.4731   25.3863 H   0  0  0  0  0  0  0  0  0  0  0  0
   20.6728   19.1994   25.2816 N   0  3  0  0  0  0  0  0  0  0  0  0
   20.2143   18.6587   26.0195 H   0  0  0  0  0  0  0  0  0  0  0  0
   21.3828   18.5985   24.8546 H   0  0  0  0  0  0  0  0  0  0  0  0
   21.1595   19.9803   25.7306 H   0  0  0  0  0  0  0  0  0  0  0  0
  1  2  1  0  0  0  0
  1  3  1  0  0  0  0
  1  4  1  0  0  0  0
  1  5  1  0  0  0  0
  5  6  1  0  0  0  0
  5  7  1  0  0  0  0
  5  8  1  0  0  0  0
  8  9  1  0  0  0  0
  8 10  1  0  0  0  0
  8 11  1  0  0  0  0
 11 12  1  0  0  0  0
 11 13  1  0  0  0  0
 11 14  1  0  0  0  0
 14 15  1  0  0  0  0
 14 16  1  0  0  0  0
 14 17  1  0  0  0  0
 17 18  1  0  0  0  0
 17 19  1  0  0  0  0
 19 20  1  0  0  0  0
 19 21  1  0  0  0  0
 19 22  1  0  0  0  0
 17 23  1  0  0  0  0
 23 24  1  0  0  0  0
 23 25  1  0  0  0  0
 23 26  1  0  0  0  0
M  END
> <VM2 Rank>
57

> <Conf_Id>
1120

> <Probability>
0.02

> <Sum Probability>
99.72

> <Delta G>
3.937

> <G>
27.649

> <E>
-5.739

> <-TS>
33.389

> <U+W>
-27.201

> <U>
26.996

> <W>
-54.196

> <W(PB)>
-56.396

> <W(SA)>
2.199

> <Valence>
6.014

> <Coulomb>
20.608

> <VdW>
0.374

> <VdW6>
-10.069

> <VdW12>
10.443

> <Bond>
0.292

> <Angle>
2.200

> <Pdih>
3.522

> <Idih>
0.000

> <Tether>
0.000

$$$$
VeraChem MOL file


 26 25  0  0  0  0  0  0  0  0999 V2000     
   20.6249   19.9520   19.9725 C   0  0  0  0  0  0  0  0  0  0  0  0
   20.2542   20.6060   19.1726 H   0  0  0  0  0  0  0  0  0  0  0  0
   20.8602   20.5846   20.8352 H   0  0  0  0  0  0  0  0  0  0  0  0
   21.5603   19.4962   19.6227 H   0  0  0  0  0  0  0  0  0  0  0  0
   19.5764   18.8673   20.3130 C   0  0  0  0  0  0  0  0  0  0  0  0
   19.3707   18.2970   19.3963 H   0  0  0  0  0  0  0  0  0  0  0  0
   18.6231   19.3336   20.5986 H   0  0  0  0  0  0  0  0  0  0  0  0
   20.0448   17.8799   21.4130 C   0  0  0  0  0  0  0  0  0  0  0  0
   19.6419   16.8862   21.1727 H   0  0  0  0  0  0  0  0  0  0  0  0
   21.1376   17.7697   21.3851 H   0  0  0  0  0  0  0  0  0  0  0  0
   19.5799   18.2355   22.8489 C   0  0  0  0  0  0  0  0  0  0  0  0
   19.8991   17.4253   23.5172 H   0  0  0  0  0  0  0  0  0  0  0  0
   18.4822   18.2420   22.8760 H   0  0  0  0  0  0  0  0  0  0  0  0
   20.1266   19.5885   23.3765 C   0  0  0  0  0  0  0  0  0  0  0  0
   21.2104   19.6330   23.2077 H   0  0  0  0  0  0  0  0  0  0  0  0
   19.6886   20.4085   22.7943 H   0  0  0  0  0  0  0  0  0  0  0  0
   19.8506   19.8613   24.8740 C   0  0  1  0  0  0  0  0  0  0  0  0
   20.2810   20.8393   25.1108 H   0  0  0  0  0  0  0  0  0  0  0  0
   18.3442   19.9288   25.1804 C   0  0  0  0  0  0  0  0  0  0  0  0
   18.1771   20.2515   26.2153 H   0  0  0  0  0  0  0  0  0  0  0  0
   17.8605   18.9532   25.0513 H   0  0  0  0  0  0  0  0  0  0  0  0
   17.8445   20.6504   24.5222 H   0  0  0  0  0  0  0  0  0  0  0  0
   20.5407   18.8748   25.7757 N   0  3  0  0  0  0  0  0  0  0  0  0
   21.5505   18.8547   25.6075 H   0  0  0  0  0  0  0  0  0  0  0  0
   20.4000   19.1081   26.7627 H   0  0  0  0  0  0  0  0  0  0  0  0
   20.1853   17.9266   25.6314 H   0  0  0  0  0  0  0  0  0  0  0  0
  1  2  1  0  0  0  0
  1  3  1  0  0  0  0
  1  4  1  0  0  0  0
  1  5  1  0  0  0  0
  5  6  1  0  0  0  0
  5  7  1  0  0  0  0
  5  8  1  0  0  0  0
  8  9  1  0  0  0  0
  8 10  1  0  0  0  0
  8 11  1  0  0  0  0
 11 12  1  0  0  0  0
 11 13  1  0  0  0  0
 11 14  1  0  0  0  0
 14 15  1  0  0  0  0
 14 16  1  0  0  0  0
 14 17  1  0  0  0  0
 17 18  1  0  0  0  0
 17 19  1  0  0  0  0
 19 20  1  0  0  0  0
 19 21  1  0  0  0  0
 19 22  1  0  0  0  0
 17 23  1  0  0  0  0
 23 24  1  0  0  0  0
 23 25  1  0  0  0  0
 23 26  1  0  0  0  0
M  END
> <VM2 Rank>
58

> <Conf_Id>
508

> <Probability>
0.02

> <Sum Probability>
99.75

> <Delta G>
3.952

> <G>
27.664

> <E>
-5.396

> <-TS>
33.060

> <U+W>
-26.858

> <U>
27.312

> <W>
-54.170

> <W(PB)>
-56.415

> <W(SA)>
2.245

> <Valence>
6.229

> <Coulomb>
19.943

> <VdW>
1.140

> <VdW6>
-9.000

> <VdW12>
10.140

> <Bond>
0.294

> <Angle>
1.969

> <Pdih>
3.967

> <Idih>
0.000

> <Tether>
0.000

$$$$
VeraChem MOL file


 26 25  0  0  0  0  0  0  0  0999 V2000     
   20.6575   18.8941   19.3744 C   0  0  0  0  0  0  0  0  0  0  0  0
   20.7175   19.3626   18.3835 H   0  0  0  0  0  0  0  0  0  0  0  0
   21.6404   19.0014   19.8498 H   0  0  0  0  0  0  0  0  0  0  0  0
   20.4602   17.8242   19.2285 H   0  0  0  0  0  0  0  0  0  0  0  0
   19.5437   19.5547   20.2182 C   0  0  0  0  0  0  0  0  0  0  0  0
   18.6049   19.5295   19.6473 H   0  0  0  0  0  0  0  0  0  0  0  0
   19.7797   20.6166   20.3747 H   0  0  0  0  0  0  0  0  0  0  0  0
   19.3133   18.8636   21.5838 C   0  0  0  0  0  0  0  0  0  0  0  0
   18.4377   19.3221   22.0588 H   0  0  0  0  0  0  0  0  0  0  0  0
   19.0509   17.8095   21.4189 H   0  0  0  0  0  0  0  0  0  0  0  0
   20.5378   18.9494   22.5311 C   0  0  0  0  0  0  0  0  0  0  0  0
   20.8990   19.9848   22.6001 H   0  0  0  0  0  0  0  0  0  0  0  0
   21.3598   18.3697   22.0908 H   0  0  0  0  0  0  0  0  0  0  0  0
   20.2568   18.3874   23.9500 C   0  0  0  0  0  0  0  0  0  0  0  0
   19.4641   17.6286   23.9095 H   0  0  0  0  0  0  0  0  0  0  0  0
   21.1589   17.8590   24.2857 H   0  0  0  0  0  0  0  0  0  0  0  0
   19.9202   19.4570   25.0172 C   0  0  1  0  0  0  0  0  0  0  0  0
   20.7516   20.1674   25.0598 H   0  0  0  0  0  0  0  0  0  0  0  0
   18.6369   20.2407   24.6939 C   0  0  0  0  0  0  0  0  0  0  0  0
   18.7597   20.8387   23.7835 H   0  0  0  0  0  0  0  0  0  0  0  0
   18.3937   20.9365   25.5063 H   0  0  0  0  0  0  0  0  0  0  0  0
   17.7828   19.5660   24.5564 H   0  0  0  0  0  0  0  0  0  0  0  0
   19.8218   18.8411   26.3854 N   0  3  0  0  0  0  0  0  0  0  0  0
   19.6468   19.5500   27.1030 H   0  0  0  0  0  0  0  0  0  0  0  0
   19.0586   18.1611   26.4357 H   0  0  0  0  0  0  0  0  0  0  0  0
   20.6850   18.3542   26.6432 H   0  0  0  0  0  0  0  0  0  0  0  0
  1  2  1  0  0  0  0
  1  3  1  0  0  0  0
  1  4  1  0  0  0  0
  1  5  1  0  0  0  0
  5  6  1  0  0  0  0
  5  7  1  0  0  0  0
  5  8  1  0  0  0  0
  8  9  1  0  0  0  0
  8 10  1  0  0  0  0
  8 11  1  0  0  0  0
 11 12  1  0  0  0  0
 11 13  1  0  0  0  0
 11 14  1  0  0  0  0
 14 15  1  0  0  0  0
 14 16  1  0  0  0  0
 14 17  1  0  0  0  0
 17 18  1  0  0  0  0
 17 19  1  0  0  0  0
 19 20  1  0  0  0  0
 19 21  1  0  0  0  0
 19 22  1  0  0  0  0
 17 23  1  0  0  0  0
 23 24  1  0  0  0  0
 23 25  1  0  0  0  0
 23 26  1  0  0  0  0
M  END
> <VM2 Rank>
59

> <Conf_Id>
1024

> <Probability>
0.02

> <Sum Probability>
99.77

> <Delta G>
4.003

> <G>
27.715

> <E>
-5.269

> <-TS>
32.984

> <U+W>
-26.731

> <U>
27.221

> <W>
-53.952

> <W(PB)>
-56.214

> <W(SA)>
2.261

> <Valence>
6.368

> <Coulomb>
19.698

> <VdW>
1.155

> <VdW6>
-8.532

> <VdW12>
9.687

> <Bond>
0.272

> <Angle>
1.847

> <Pdih>
4.248

> <Idih>
0.000

> <Tether>
0.000

$$$$
VeraChem MOL file


 26 25  0  0  0  0  0  0  0  0999 V2000     
   20.0274   18.5897   19.3315 C   0  0  0  0  0  0  0  0  0  0  0  0
   18.9351   18.5621   19.2255 H   0  0  0  0  0  0  0  0  0  0  0  0
   20.4565   18.7625   18.3360 H   0  0  0  0  0  0  0  0  0  0  0  0
   20.3657   17.6021   19.6680 H   0  0  0  0  0  0  0  0  0  0  0  0
   20.4633   19.7054   20.3084 C   0  0  0  0  0  0  0  0  0  0  0  0
   20.2153   20.6792   19.8632 H   0  0  0  0  0  0  0  0  0  0  0  0
   21.5561   19.6904   20.4243 H   0  0  0  0  0  0  0  0  0  0  0  0
   19.7871   19.6101   21.6975 C   0  0  0  0  0  0  0  0  0  0  0  0
   20.0487   20.5145   22.2619 H   0  0  0  0  0  0  0  0  0  0  0  0
   18.6953   19.6203   21.5751 H   0  0  0  0  0  0  0  0  0  0  0  0
   20.2133   18.3598   22.5068 C   0  0  0  0  0  0  0  0  0  0  0  0
   21.3026   18.3715   22.6505 H   0  0  0  0  0  0  0  0  0  0  0  0
   19.9887   17.4542   21.9290 H   0  0  0  0  0  0  0  0  0  0  0  0
   19.5154   18.2312   23.8848 C   0  0  0  0  0  0  0  0  0  0  0  0
   18.4302   18.1314   23.7485 H   0  0  0  0  0  0  0  0  0  0  0  0
   19.8444   17.2841   24.3324 H   0  0  0  0  0  0  0  0  0  0  0  0
   19.8346   19.3919   24.8583 C   0  0  1  0  0  0  0  0  0  0  0  0
   20.7301   19.9054   24.4951 H   0  0  0  0  0  0  0  0  0  0  0  0
   18.6783   20.4062   24.9290 C   0  0  0  0  0  0  0  0  0  0  0  0
   17.7724   19.9439   25.3407 H   0  0  0  0  0  0  0  0  0  0  0  0
   18.4320   20.8049   23.9386 H   0  0  0  0  0  0  0  0  0  0  0  0
   18.9473   21.2545   25.5704 H   0  0  0  0  0  0  0  0  0  0  0  0
   20.1686   18.8935   26.2377 N   0  3  0  0  0  0  0  0  0  0  0  0
   20.4095   19.6653   26.8662 H   0  0  0  0  0  0  0  0  0  0  0  0
   19.3796   18.3939   26.6567 H   0  0  0  0  0  0  0  0  0  0  0  0
   20.9670   18.2524   26.2235 H   0  0  0  0  0  0  0  0  0  0  0  0
  1  2  1  0  0  0  0
  1  3  1  0  0  0  0
  1  4  1  0  0  0  0
  1  5  1  0  0  0  0
  5  6  1  0  0  0  0
  5  7  1  0  0  0  0
  5  8  1  0  0  0  0
  8  9  1  0  0  0  0
  8 10  1  0  0  0  0
  8 11  1  0  0  0  0
 11 12  1  0  0  0  0
 11 13  1  0  0  0  0
 11 14  1  0  0  0  0
 14 15  1  0  0  0  0
 14 16  1  0  0  0  0
 14 17  1  0  0  0  0
 17 18  1  0  0  0  0
 17 19  1  0  0  0  0
 19 20  1  0  0  0  0
 19 21  1  0  0  0  0
 19 22  1  0  0  0  0
 17 23  1  0  0  0  0
 23 24  1  0  0  0  0
 23 25  1  0  0  0  0
 23 26  1  0  0  0  0
M  END
> <VM2 Rank>
60

> <Conf_Id>
503

> <Probability>
0.02

> <Sum Probability>
99.79

> <Delta G>
4.007

> <G>
27.719

> <E>
-5.019

> <-TS>
32.738

> <U+W>
-26.481

> <U>
27.496

> <W>
-53.977

> <W(PB)>
-56.267

> <W(SA)>
2.290

> <Valence>
6.472

> <Coulomb>
19.839

> <VdW>
1.185

> <VdW6>
-8.405

> <VdW12>
9.590

> <Bond>
0.248

> <Angle>
1.619

> <Pdih>
4.604

> <Idih>
0.000

> <Tether>
0.000

$$$$
VeraChem MOL file


 26 25  0  0  0  0  0  0  0  0999 V2000     
   20.4577   17.6856   20.2554 C   0  0  0  0  0  0  0  0  0  0  0  0
   21.3373   17.2587   19.7563 H   0  0  0  0  0  0  0  0  0  0  0  0
   20.3776   17.2202   21.2440 H   0  0  0  0  0  0  0  0  0  0  0  0
   19.5725   17.3962   19.6742 H   0  0  0  0  0  0  0  0  0  0  0  0
   20.5794   19.2249   20.3437 C   0  0  0  0  0  0  0  0  0  0  0  0
   20.6670   19.6167   19.3206 H   0  0  0  0  0  0  0  0  0  0  0  0
   21.5105   19.5065   20.8549 H   0  0  0  0  0  0  0  0  0  0  0  0
   19.3622   19.8981   21.0287 C   0  0  0  0  0  0  0  0  0  0  0  0
   19.1622   20.8476   20.5130 H   0  0  0  0  0  0  0  0  0  0  0  0
   18.4596   19.2885   20.8842 H   0  0  0  0  0  0  0  0  0  0  0  0
   19.5533   20.2171   22.5344 C   0  0  0  0  0  0  0  0  0  0  0  0
   18.6581   20.7516   22.8760 H   0  0  0  0  0  0  0  0  0  0  0  0
   20.3926   20.9160   22.6550 H   0  0  0  0  0  0  0  0  0  0  0  0
   19.7912   18.9709   23.4246 C   0  0  0  0  0  0  0  0  0  0  0  0
   18.9842   18.2425   23.2706 H   0  0  0  0  0  0  0  0  0  0  0  0
   20.7216   18.4870   23.1045 H   0  0  0  0  0  0  0  0  0  0  0  0
   19.9213   19.2950   24.9309 C   0  0  1  0  0  0  0  0  0  0  0  0
   20.6740   20.0805   25.0495 H   0  0  0  0  0  0  0  0  0  0  0  0
   18.5961   19.7915   25.5375 C   0  0  0  0  0  0  0  0  0  0  0  0
   17.7911   19.0624   25.3829 H   0  0  0  0  0  0  0  0  0  0  0  0
   18.2854   20.7454   25.0968 H   0  0  0  0  0  0  0  0  0  0  0  0
   18.7033   19.9548   26.6169 H   0  0  0  0  0  0  0  0  0  0  0  0
   20.4268   18.1050   25.6988 N   0  3  0  0  0  0  0  0  0  0  0  0
   21.3315   17.7827   25.3434 H   0  0  0  0  0  0  0  0  0  0  0  0
   20.5514   18.3257   26.6909 H   0  0  0  0  0  0  0  0  0  0  0  0
   19.7752   17.3178   25.6410 H   0  0  0  0  0  0  0  0  0  0  0  0
  1  2  1  0  0  0  0
  1  3  1  0  0  0  0
  1  4  1  0  0  0  0
  1  5  1  0  0  0  0
  5  6  1  0  0  0  0
  5  7  1  0  0  0  0
  5  8  1  0  0  0  0
  8  9  1  0  0  0  0
  8 10  1  0  0  0  0
  8 11  1  0  0  0  0
 11 12  1  0  0  0  0
 11 13  1  0  0  0  0
 11 14  1  0  0  0  0
 14 15  1  0  0  0  0
 14 16  1  0  0  0  0
 14 17  1  0  0  0  0
 17 18  1  0  0  0  0
 17 19  1  0  0  0  0
 19 20  1  0  0  0  0
 19 21  1  0  0  0  0
 19 22  1  0  0  0  0
 17 23  1  0  0  0  0
 23 24  1  0  0  0  0
 23 25  1  0  0  0  0
 23 26  1  0  0  0  0
M  END
> <VM2 Rank>
61

> <Conf_Id>
540

> <Probability>
0.02

> <Sum Probability>
99.81

> <Delta G>
4.020

> <G>
27.732

> <E>
-5.118

> <-TS>
32.850

> <U+W>
-26.580

> <U>
27.653

> <W>
-54.232

> <W(PB)>
-56.523

> <W(SA)>
2.290

> <Valence>
6.436

> <Coulomb>
19.986

> <VdW>
1.232

> <VdW6>
-8.460

> <VdW12>
9.692

> <Bond>
0.276

> <Angle>
2.012

> <Pdih>
4.149

> <Idih>
0.000

> <Tether>
0.000

$$$$
VeraChem MOL file


 26 25  0  0  0  0  0  0  0  0999 V2000     
   19.6185   18.0420   19.5421 C   0  0  0  0  0  0  0  0  0  0  0  0
   18.6752   18.5626   19.3314 H   0  0  0  0  0  0  0  0  0  0  0  0
   20.1232   17.8586   18.5847 H   0  0  0  0  0  0  0  0  0  0  0  0
   19.3793   17.0680   19.9887 H   0  0  0  0  0  0  0  0  0  0  0  0
   20.5157   18.8775   20.4797 C   0  0  0  0  0  0  0  0  0  0  0  0
   20.7663   19.8292   19.9904 H   0  0  0  0  0  0  0  0  0  0  0  0
   21.4639   18.3470   20.6455 H   0  0  0  0  0  0  0  0  0  0  0  0
   19.8271   19.1518   21.8350 C   0  0  0  0  0  0  0  0  0  0  0  0
   18.8843   19.6896   21.6637 H   0  0  0  0  0  0  0  0  0  0  0  0
   19.5752   18.1913   22.2999 H   0  0  0  0  0  0  0  0  0  0  0  0
   20.7313   19.9748   22.7819 C   0  0  0  0  0  0  0  0  0  0  0  0
   21.1025   20.8523   22.2345 H   0  0  0  0  0  0  0  0  0  0  0  0
   21.6239   19.3897   23.0410 H   0  0  0  0  0  0  0  0  0  0  0  0
   20.0353   20.4873   24.0750 C   0  0  0  0  0  0  0  0  0  0  0  0
   20.7682   21.0970   24.6192 H   0  0  0  0  0  0  0  0  0  0  0  0
   19.2270   21.1807   23.8077 H   0  0  0  0  0  0  0  0  0  0  0  0
   19.4985   19.4234   25.0677 C   0  0  1  0  0  0  0  0  0  0  0  0
   19.4722   19.9007   26.0522 H   0  0  0  0  0  0  0  0  0  0  0  0
   18.0522   18.9957   24.7564 C   0  0  0  0  0  0  0  0  0  0  0  0
   17.6687   18.3435   25.5505 H   0  0  0  0  0  0  0  0  0  0  0  0
   17.9696   18.4505   23.8117 H   0  0  0  0  0  0  0  0  0  0  0  0
   17.3916   19.8699   24.7030 H   0  0  0  0  0  0  0  0  0  0  0  0
   20.4094   18.2355   25.2163 N   0  3  0  0  0  0  0  0  0  0  0  0
   21.3484   18.5198   25.5092 H   0  0  0  0  0  0  0  0  0  0  0  0
   20.0561   17.5770   25.9163 H   0  0  0  0  0  0  0  0  0  0  0  0
   20.5022   17.7294   24.3323 H   0  0  0  0  0  0  0  0  0  0  0  0
  1  2  1  0  0  0  0
  1  3  1  0  0  0  0
  1  4  1  0  0  0  0
  1  5  1  0  0  0  0
  5  6  1  0  0  0  0
  5  7  1  0  0  0  0
  5  8  1  0  0  0  0
  8  9  1  0  0  0  0
  8 10  1  0  0  0  0
  8 11  1  0  0  0  0
 11 12  1  0  0  0  0
 11 13  1  0  0  0  0
 11 14  1  0  0  0  0
 14 15  1  0  0  0  0
 14 16  1  0  0  0  0
 14 17  1  0  0  0  0
 17 18  1  0  0  0  0
 17 19  1  0  0  0  0
 19 20  1  0  0  0  0
 19 21  1  0  0  0  0
 19 22  1  0  0  0  0
 17 23  1  0  0  0  0
 23 24  1  0  0  0  0
 23 25  1  0  0  0  0
 23 26  1  0  0  0  0
M  END
> <VM2 Rank>
62

> <Conf_Id>
257

> <Probability>
0.02

> <Sum Probability>
99.83

> <Delta G>
4.047

> <G>
27.759

> <E>
-5.289

> <-TS>
33.048

> <U+W>
-26.751

> <U>
27.376

> <W>
-54.127

> <W(PB)>
-56.398

> <W(SA)>
2.271

> <Valence>
5.849

> <Coulomb>
20.574

> <VdW>
0.953

> <VdW6>
-8.734

> <VdW12>
9.687

> <Bond>
0.283

> <Angle>
2.366

> <Pdih>
3.200

> <Idih>
0.000

> <Tether>
0.000

$$$$
VeraChem MOL file


 26 25  0  0  0  0  0  0  0  0999 V2000     
   20.7589   18.6696   19.5613 C   0  0  0  0  0  0  0  0  0  0  0  0
   20.6978   19.6904   19.1623 H   0  0  0  0  0  0  0  0  0  0  0  0
   21.6963   18.5750   20.1233 H   0  0  0  0  0  0  0  0  0  0  0  0
   20.8140   17.9791   18.7098 H   0  0  0  0  0  0  0  0  0  0  0  0
   19.5325   18.3433   20.4434 C   0  0  0  0  0  0  0  0  0  0  0  0
   19.6329   17.3293   20.8551 H   0  0  0  0  0  0  0  0  0  0  0  0
   18.6345   18.3300   19.8100 H   0  0  0  0  0  0  0  0  0  0  0  0
   19.3134   19.3554   21.5938 C   0  0  0  0  0  0  0  0  0  0  0  0
   19.1869   20.3626   21.1736 H   0  0  0  0  0  0  0  0  0  0  0  0
   18.3657   19.1124   22.0887 H   0  0  0  0  0  0  0  0  0  0  0  0
   20.4662   19.3677   22.6306 C   0  0  0  0  0  0  0  0  0  0  0  0
   21.3760   19.7283   22.1329 H   0  0  0  0  0  0  0  0  0  0  0  0
   20.6881   18.3453   22.9624 H   0  0  0  0  0  0  0  0  0  0  0  0
   20.1896   20.2921   23.8493 C   0  0  0  0  0  0  0  0  0  0  0  0
   21.1343   20.7692   24.1417 H   0  0  0  0  0  0  0  0  0  0  0  0
   19.5303   21.1176   23.5502 H   0  0  0  0  0  0  0  0  0  0  0  0
   19.6100   19.6008   25.1086 C   0  0  1  0  0  0  0  0  0  0  0  0
   19.4648   20.3790   25.8642 H   0  0  0  0  0  0  0  0  0  0  0  0
   18.2437   18.9434   24.8549 C   0  0  0  0  0  0  0  0  0  0  0  0
   17.5427   19.6601   24.4096 H   0  0  0  0  0  0  0  0  0  0  0  0
   17.8062   18.5931   25.7977 H   0  0  0  0  0  0  0  0  0  0  0  0
   18.3315   18.0790   24.1860 H   0  0  0  0  0  0  0  0  0  0  0  0
   20.5738   18.6158   25.7121 N   0  3  0  0  0  0  0  0  0  0  0  0
   20.7637   17.8405   25.0727 H   0  0  0  0  0  0  0  0  0  0  0  0
   21.4702   19.0567   25.9366 H   0  0  0  0  0  0  0  0  0  0  0  0
   20.2050   18.2153   26.5793 H   0  0  0  0  0  0  0  0  0  0  0  0
  1  2  1  0  0  0  0
  1  3  1  0  0  0  0
  1  4  1  0  0  0  0
  1  5  1  0  0  0  0
  5  6  1  0  0  0  0
  5  7  1  0  0  0  0
  5  8  1  0  0  0  0
  8  9  1  0  0  0  0
  8 10  1  0  0  0  0
  8 11  1  0  0  0  0
 11 12  1  0  0  0  0
 11 13  1  0  0  0  0
 11 14  1  0  0  0  0
 14 15  1  0  0  0  0
 14 16  1  0  0  0  0
 14 17  1  0  0  0  0
 17 18  1  0  0  0  0
 17 19  1  0  0  0  0
 19 20  1  0  0  0  0
 19 21  1  0  0  0  0
 19 22  1  0  0  0  0
 17 23  1  0  0  0  0
 23 24  1  0  0  0  0
 23 25  1  0  0  0  0
 23 26  1  0  0  0  0
M  END
> <VM2 Rank>
63

> <Conf_Id>
984

> <Probability>
0.02

> <Sum Probability>
99.85

> <Delta G>
4.049

> <G>
27.761

> <E>
-5.293

> <-TS>
33.054

> <U+W>
-26.755

> <U>
27.509

> <W>
-54.264

> <W(PB)>
-56.496

> <W(SA)>
2.232

> <Valence>
6.375

> <Coulomb>
20.014

> <VdW>
1.120

> <VdW6>
-8.976

> <VdW12>
10.096

> <Bond>
0.304

> <Angle>
1.985

> <Pdih>
4.086

> <Idih>
0.000

> <Tether>
0.000

$$$$
VeraChem MOL file


 26 25  0  0  0  0  0  0  0  0999 V2000     
   20.6431   19.9243   19.9617 C   0  0  0  0  0  0  0  0  0  0  0  0
   21.5663   20.0484   19.3810 H   0  0  0  0  0  0  0  0  0  0  0  0
   19.8010   20.1829   19.3067 H   0  0  0  0  0  0  0  0  0  0  0  0
   20.6668   20.6500   20.7820 H   0  0  0  0  0  0  0  0  0  0  0  0
   20.5174   18.4701   20.4730 C   0  0  0  0  0  0  0  0  0  0  0  0
   21.4010   18.1954   21.0657 H   0  0  0  0  0  0  0  0  0  0  0  0
   20.5210   17.8031   19.5995 H   0  0  0  0  0  0  0  0  0  0  0  0
   19.2215   18.2135   21.2848 C   0  0  0  0  0  0  0  0  0  0  0  0
   18.4214   18.8865   20.9470 H   0  0  0  0  0  0  0  0  0  0  0  0
   18.8699   17.1983   21.0543 H   0  0  0  0  0  0  0  0  0  0  0  0
   19.3858   18.3110   22.8237 C   0  0  0  0  0  0  0  0  0  0  0  0
   20.1123   17.5568   23.1542 H   0  0  0  0  0  0  0  0  0  0  0  0
   18.4265   18.0345   23.2791 H   0  0  0  0  0  0  0  0  0  0  0  0
   19.8183   19.7135   23.3282 C   0  0  0  0  0  0  0  0  0  0  0  0
   20.8213   19.9398   22.9468 H   0  0  0  0  0  0  0  0  0  0  0  0
   19.1487   20.4758   22.9089 H   0  0  0  0  0  0  0  0  0  0  0  0
   19.8532   19.8709   24.8670 C   0  0  1  0  0  0  0  0  0  0  0  0
   20.2455   20.8699   25.0813 H   0  0  0  0  0  0  0  0  0  0  0  0
   18.4500   19.7824   25.4927 C   0  0  0  0  0  0  0  0  0  0  0  0
   18.4892   20.0405   26.5581 H   0  0  0  0  0  0  0  0  0  0  0  0
   18.0291   18.7736   25.4093 H   0  0  0  0  0  0  0  0  0  0  0  0
   17.7610   20.4841   25.0064 H   0  0  0  0  0  0  0  0  0  0  0  0
   20.7987   18.9023   25.5228 N   0  3  0  0  0  0  0  0  0  0  0  0
   20.8560   19.0609   26.5327 H   0  0  0  0  0  0  0  0  0  0  0  0
   20.4969   17.9353   25.3806 H   0  0  0  0  0  0  0  0  0  0  0  0
   21.7465   18.9887   25.1452 H   0  0  0  0  0  0  0  0  0  0  0  0
  1  2  1  0  0  0  0
  1  3  1  0  0  0  0
  1  4  1  0  0  0  0
  1  5  1  0  0  0  0
  5  6  1  0  0  0  0
  5  7  1  0  0  0  0
  5  8  1  0  0  0  0
  8  9  1  0  0  0  0
  8 10  1  0  0  0  0
  8 11  1  0  0  0  0
 11 12  1  0  0  0  0
 11 13  1  0  0  0  0
 11 14  1  0  0  0  0
 14 15  1  0  0  0  0
 14 16  1  0  0  0  0
 14 17  1  0  0  0  0
 17 18  1  0  0  0  0
 17 19  1  0  0  0  0
 19 20  1  0  0  0  0
 19 21  1  0  0  0  0
 19 22  1  0  0  0  0
 17 23  1  0  0  0  0
 23 24  1  0  0  0  0
 23 25  1  0  0  0  0
 23 26  1  0  0  0  0
M  END
> <VM2 Rank>
64

> <Conf_Id>
1110

> <Probability>
0.02

> <Sum Probability>
99.86

> <Delta G>
4.061

> <G>
27.773

> <E>
-5.249

> <-TS>
33.022

> <U+W>
-26.711

> <U>
27.573

> <W>
-54.284

> <W(PB)>
-56.537

> <W(SA)>
2.253

> <Valence>
6.363

> <Coulomb>
20.026

> <VdW>
1.184

> <VdW6>
-8.939

> <VdW12>
10.123

> <Bond>
0.298

> <Angle>
2.018

> <Pdih>
4.047

> <Idih>
0.000

> <Tether>
0.000

$$$$
VeraChem MOL file


 26 25  0  0  0  0  0  0  0  0999 V2000     
   19.5509   18.2246   19.4067 C   0  0  0  0  0  0  0  0  0  0  0  0
   20.0720   17.4546   18.8231 H   0  0  0  0  0  0  0  0  0  0  0  0
   18.5807   17.8141   19.7157 H   0  0  0  0  0  0  0  0  0  0  0  0
   19.3650   19.0805   18.7448 H   0  0  0  0  0  0  0  0  0  0  0  0
   20.3919   18.6421   20.6317 C   0  0  0  0  0  0  0  0  0  0  0  0
   20.5925   17.7547   21.2459 H   0  0  0  0  0  0  0  0  0  0  0  0
   21.3670   19.0176   20.2913 H   0  0  0  0  0  0  0  0  0  0  0  0
   19.6775   19.7298   21.4692 C   0  0  0  0  0  0  0  0  0  0  0  0
   19.4614   20.5877   20.8176 H   0  0  0  0  0  0  0  0  0  0  0  0
   18.7054   19.3526   21.8091 H   0  0  0  0  0  0  0  0  0  0  0  0
   20.5197   20.2299   22.6720 C   0  0  0  0  0  0  0  0  0  0  0  0
   20.0909   21.1652   23.0576 H   0  0  0  0  0  0  0  0  0  0  0  0
   21.5200   20.4978   22.3045 H   0  0  0  0  0  0  0  0  0  0  0  0
   20.6676   19.2109   23.8360 C   0  0  0  0  0  0  0  0  0  0  0  0
   20.6006   18.1806   23.4671 H   0  0  0  0  0  0  0  0  0  0  0  0
   21.6819   19.3156   24.2432 H   0  0  0  0  0  0  0  0  0  0  0  0
   19.6742   19.4157   25.0050 C   0  0  1  0  0  0  0  0  0  0  0  0
   19.7959   20.4363   25.3806 H   0  0  0  0  0  0  0  0  0  0  0  0
   18.2078   19.2328   24.5787 C   0  0  0  0  0  0  0  0  0  0  0  0
   17.5406   19.3035   25.4465 H   0  0  0  0  0  0  0  0  0  0  0  0
   18.0498   18.2555   24.1060 H   0  0  0  0  0  0  0  0  0  0  0  0
   17.9028   20.0148   23.8739 H   0  0  0  0  0  0  0  0  0  0  0  0
   19.9986   18.5022   26.1546 N   0  3  0  0  0  0  0  0  0  0  0  0
   20.9571   18.6401   26.4874 H   0  0  0  0  0  0  0  0  0  0  0  0
   19.3744   18.6656   26.9497 H   0  0  0  0  0  0  0  0  0  0  0  0
   19.9035   17.5184   25.8893 H   0  0  0  0  0  0  0  0  0  0  0  0
  1  2  1  0  0  0  0
  1  3  1  0  0  0  0
  1  4  1  0  0  0  0
  1  5  1  0  0  0  0
  5  6  1  0  0  0  0
  5  7  1  0  0  0  0
  5  8  1  0  0  0  0
  8  9  1  0  0  0  0
  8 10  1  0  0  0  0
  8 11  1  0  0  0  0
 11 12  1  0  0  0  0
 11 13  1  0  0  0  0
 11 14  1  0  0  0  0
 14 15  1  0  0  0  0
 14 16  1  0  0  0  0
 14 17  1  0  0  0  0
 17 18  1  0  0  0  0
 17 19  1  0  0  0  0
 19 20  1  0  0  0  0
 19 21  1  0  0  0  0
 19 22  1  0  0  0  0
 17 23  1  0  0  0  0
 23 24  1  0  0  0  0
 23 25  1  0  0  0  0
 23 26  1  0  0  0  0
M  END
> <VM2 Rank>
65

> <Conf_Id>
264

> <Probability>
0.02

> <Sum Probability>
99.88

> <Delta G>
4.150

> <G>
27.862

> <E>
-5.039

> <-TS>
32.901

> <U+W>
-26.501

> <U>
27.603

> <W>
-54.104

> <W(PB)>
-56.397

> <W(SA)>
2.293

> <Valence>
6.568

> <Coulomb>
19.917

> <VdW>
1.118

> <VdW6>
-8.472

> <VdW12>
9.590

> <Bond>
0.286

> <Angle>
1.909

> <Pdih>
4.373

> <Idih>
0.000

> <Tether>
0.000

$$$$
VeraChem MOL file


 26 25  0  0  0  0  0  0  0  0999 V2000     
   20.4398   19.0357   19.4806 C   0  0  0  0  0  0  0  0  0  0  0  0
   21.5263   19.1534   19.5841 H   0  0  0  0  0  0  0  0  0  0  0  0
   20.2419   18.6106   18.4881 H   0  0  0  0  0  0  0  0  0  0  0  0
   19.9815   20.0317   19.5082 H   0  0  0  0  0  0  0  0  0  0  0  0
   19.8726   18.1146   20.5849 C   0  0  0  0  0  0  0  0  0  0  0  0
   20.2644   17.0996   20.4298 H   0  0  0  0  0  0  0  0  0  0  0  0
   18.7809   18.0410   20.4824 H   0  0  0  0  0  0  0  0  0  0  0  0
   20.2358   18.5704   22.0191 C   0  0  0  0  0  0  0  0  0  0  0  0
   19.9251   17.7749   22.7063 H   0  0  0  0  0  0  0  0  0  0  0  0
   21.3269   18.6628   22.1086 H   0  0  0  0  0  0  0  0  0  0  0  0
   19.5572   19.9004   22.4336 C   0  0  0  0  0  0  0  0  0  0  0  0
   18.4658   19.7828   22.4042 H   0  0  0  0  0  0  0  0  0  0  0  0
   19.7921   20.6713   21.6891 H   0  0  0  0  0  0  0  0  0  0  0  0
   19.9977   20.4505   23.8199 C   0  0  0  0  0  0  0  0  0  0  0  0
   21.0716   20.6771   23.7952 H   0  0  0  0  0  0  0  0  0  0  0  0
   19.5005   21.4184   23.9660 H   0  0  0  0  0  0  0  0  0  0  0  0
   19.6955   19.5806   25.0671 C   0  0  1  0  0  0  0  0  0  0  0  0
   19.8545   20.2194   25.9414 H   0  0  0  0  0  0  0  0  0  0  0  0
   18.2342   19.1009   25.1113 C   0  0  0  0  0  0  0  0  0  0  0  0
   17.5442   19.9470   25.0035 H   0  0  0  0  0  0  0  0  0  0  0  0
   18.0181   18.6153   26.0707 H   0  0  0  0  0  0  0  0  0  0  0  0
   18.0205   18.3787   24.3142 H   0  0  0  0  0  0  0  0  0  0  0  0
   20.6552   18.4349   25.2374 N   0  3  0  0  0  0  0  0  0  0  0  0
   21.6246   18.7619   25.2807 H   0  0  0  0  0  0  0  0  0  0  0  0
   20.4693   17.9178   26.1014 H   0  0  0  0  0  0  0  0  0  0  0  0
   20.5876   17.7733   24.4617 H   0  0  0  0  0  0  0  0  0  0  0  0
  1  2  1  0  0  0  0
  1  3  1  0  0  0  0
  1  4  1  0  0  0  0
  1  5  1  0  0  0  0
  5  6  1  0  0  0  0
  5  7  1  0  0  0  0
  5  8  1  0  0  0  0
  8  9  1  0  0  0  0
  8 10  1  0  0  0  0
  8 11  1  0  0  0  0
 11 12  1  0  0  0  0
 11 13  1  0  0  0  0
 11 14  1  0  0  0  0
 14 15  1  0  0  0  0
 14 16  1  0  0  0  0
 14 17  1  0  0  0  0
 17 18  1  0  0  0  0
 17 19  1  0  0  0  0
 19 20  1  0  0  0  0
 19 21  1  0  0  0  0
 19 22  1  0  0  0  0
 17 23  1  0  0  0  0
 23 24  1  0  0  0  0
 23 25  1  0  0  0  0
 23 26  1  0  0  0  0
M  END
> <VM2 Rank>
66

> <Conf_Id>
752

> <Probability>
0.02

> <Sum Probability>
99.90

> <Delta G>
4.158

> <G>
27.870

> <E>
-5.300

> <-TS>
33.169

> <U+W>
-26.761

> <U>
27.482

> <W>
-54.244

> <W(PB)>
-56.495

> <W(SA)>
2.251

> <Valence>
5.284

> <Coulomb>
21.247

> <VdW>
0.951

> <VdW6>
-9.415

> <VdW12>
10.366

> <Bond>
0.323

> <Angle>
2.523

> <Pdih>
2.438

> <Idih>
0.000

> <Tether>
0.000

$$$$
VeraChem MOL file


 26 25  0  0  0  0  0  0  0  0999 V2000     
   21.5436   19.2831   21.0331 C   0  0  0  0  0  0  0  0  0  0  0  0
   21.7666   18.4704   20.3297 H   0  0  0  0  0  0  0  0  0  0  0  0
   22.2243   20.1150   20.8105 H   0  0  0  0  0  0  0  0  0  0  0  0
   21.7725   18.9303   22.0448 H   0  0  0  0  0  0  0  0  0  0  0  0
   20.0723   19.7383   20.9025 C   0  0  0  0  0  0  0  0  0  0  0  0
   19.9254   20.1570   19.8971 H   0  0  0  0  0  0  0  0  0  0  0  0
   19.8644   20.5620   21.5971 H   0  0  0  0  0  0  0  0  0  0  0  0
   19.0524   18.5909   21.1066 C   0  0  0  0  0  0  0  0  0  0  0  0
   18.0420   18.9828   20.9259 H   0  0  0  0  0  0  0  0  0  0  0  0
   19.2192   17.8329   20.3290 H   0  0  0  0  0  0  0  0  0  0  0  0
   19.0773   17.8892   22.4915 C   0  0  0  0  0  0  0  0  0  0  0  0
   20.0415   17.3919   22.6533 H   0  0  0  0  0  0  0  0  0  0  0  0
   18.3378   17.0773   22.4561 H   0  0  0  0  0  0  0  0  0  0  0  0
   18.7125   18.8071   23.6901 C   0  0  0  0  0  0  0  0  0  0  0  0
   17.9288   19.5099   23.3778 H   0  0  0  0  0  0  0  0  0  0  0  0
   18.2656   18.1932   24.4833 H   0  0  0  0  0  0  0  0  0  0  0  0
   19.9053   19.5844   24.2920 C   0  0  1  0  0  0  0  0  0  0  0  0
   20.4225   20.1153   23.4895 H   0  0  0  0  0  0  0  0  0  0  0  0
   19.4068   20.6233   25.3089 C   0  0  0  0  0  0  0  0  0  0  0  0
   20.2459   21.1977   25.7206 H   0  0  0  0  0  0  0  0  0  0  0  0
   18.8799   20.1423   26.1425 H   0  0  0  0  0  0  0  0  0  0  0  0
   18.7188   21.3341   24.8344 H   0  0  0  0  0  0  0  0  0  0  0  0
   20.9177   18.6716   24.9293 N   0  3  0  0  0  0  0  0  0  0  0  0
   21.7153   19.1969   25.2986 H   0  0  0  0  0  0  0  0  0  0  0  0
   20.5088   18.1497   25.7089 H   0  0  0  0  0  0  0  0  0  0  0  0
   21.2816   17.9890   24.2597 H   0  0  0  0  0  0  0  0  0  0  0  0
  1  2  1  0  0  0  0
  1  3  1  0  0  0  0
  1  4  1  0  0  0  0
  1  5  1  0  0  0  0
  5  6  1  0  0  0  0
  5  7  1  0  0  0  0
  5  8  1  0  0  0  0
  8  9  1  0  0  0  0
  8 10  1  0  0  0  0
  8 11  1  0  0  0  0
 11 12  1  0  0  0  0
 11 13  1  0  0  0  0
 11 14  1  0  0  0  0
 14 15  1  0  0  0  0
 14 16  1  0  0  0  0
 14 17  1  0  0  0  0
 17 18  1  0  0  0  0
 17 19  1  0  0  0  0
 19 20  1  0  0  0  0
 19 21  1  0  0  0  0
 19 22  1  0  0  0  0
 17 23  1  0  0  0  0
 23 24  1  0  0  0  0
 23 25  1  0  0  0  0
 23 26  1  0  0  0  0
M  END
> <VM2 Rank>
67

> <Conf_Id>
516

> <Probability>
0.01

> <Sum Probability>
99.91

> <Delta G>
4.243

> <G>
27.955

> <E>
-5.588

> <-TS>
33.543

> <U+W>
-27.050

> <U>
27.275

> <W>
-54.324

> <W(PB)>
-56.530

> <W(SA)>
2.205

> <Valence>
5.855

> <Coulomb>
21.051

> <VdW>
0.368

> <VdW6>
-9.999

> <VdW12>
10.367

> <Bond>
0.292

> <Angle>
2.256

> <Pdih>
3.307

> <Idih>
0.000

> <Tether>
0.000

$$$$
VeraChem MOL file


 26 25  0  0  0  0  0  0  0  0999 V2000     
   21.4562   19.0954   20.5656 C   0  0  0  0  0  0  0  0  0  0  0  0
   21.8087   18.8184   21.5666 H   0  0  0  0  0  0  0  0  0  0  0  0
   22.2060   18.7437   19.8452 H   0  0  0  0  0  0  0  0  0  0  0  0
   21.4146   20.1902   20.4990 H   0  0  0  0  0  0  0  0  0  0  0  0
   20.0792   18.4660   20.2614 C   0  0  0  0  0  0  0  0  0  0  0  0
   20.1407   17.3763   20.3896 H   0  0  0  0  0  0  0  0  0  0  0  0
   19.8414   18.6343   19.2017 H   0  0  0  0  0  0  0  0  0  0  0  0
   18.9170   19.0252   21.1212 C   0  0  0  0  0  0  0  0  0  0  0  0
   18.7804   20.0969   20.9210 H   0  0  0  0  0  0  0  0  0  0  0  0
   17.9915   18.5406   20.7805 H   0  0  0  0  0  0  0  0  0  0  0  0
   19.0612   18.7752   22.6451 C   0  0  0  0  0  0  0  0  0  0  0  0
   19.6433   17.8603   22.8161 H   0  0  0  0  0  0  0  0  0  0  0  0
   18.0604   18.5811   23.0529 H   0  0  0  0  0  0  0  0  0  0  0  0
   19.6813   19.9794   23.4065 C   0  0  0  0  0  0  0  0  0  0  0  0
   20.6314   20.2688   22.9441 H   0  0  0  0  0  0  0  0  0  0  0  0
   19.0219   20.8505   23.2968 H   0  0  0  0  0  0  0  0  0  0  0  0
   19.9316   19.7359   24.9135 C   0  0  1  0  0  0  0  0  0  0  0  0
   20.3740   20.6501   25.3213 H   0  0  0  0  0  0  0  0  0  0  0  0
   18.6261   19.4680   25.6826 C   0  0  0  0  0  0  0  0  0  0  0  0
   17.8946   20.2646   25.4984 H   0  0  0  0  0  0  0  0  0  0  0  0
   18.8170   19.4353   26.7623 H   0  0  0  0  0  0  0  0  0  0  0  0
   18.1740   18.5118   25.3937 H   0  0  0  0  0  0  0  0  0  0  0  0
   20.9354   18.6428   25.1582 N   0  3  0  0  0  0  0  0  0  0  0  0
   20.5950   17.7420   24.8135 H   0  0  0  0  0  0  0  0  0  0  0  0
   21.8244   18.8374   24.6892 H   0  0  0  0  0  0  0  0  0  0  0  0
   21.1338   18.5344   26.1568 H   0  0  0  0  0  0  0  0  0  0  0  0
  1  2  1  0  0  0  0
  1  3  1  0  0  0  0
  1  4  1  0  0  0  0
  1  5  1  0  0  0  0
  5  6  1  0  0  0  0
  5  7  1  0  0  0  0
  5  8  1  0  0  0  0
  8  9  1  0  0  0  0
  8 10  1  0  0  0  0
  8 11  1  0  0  0  0
 11 12  1  0  0  0  0
 11 13  1  0  0  0  0
 11 14  1  0  0  0  0
 14 15  1  0  0  0  0
 14 16  1  0  0  0  0
 14 17  1  0  0  0  0
 17 18  1  0  0  0  0
 17 19  1  0  0  0  0
 19 20  1  0  0  0  0
 19 21  1  0  0  0  0
 19 22  1  0  0  0  0
 17 23  1  0  0  0  0
 23 24  1  0  0  0  0
 23 25  1  0  0  0  0
 23 26  1  0  0  0  0
M  END
> <VM2 Rank>
68

> <Conf_Id>
428

> <Probability>
0.01

> <Sum Probability>
99.92

> <Delta G>
4.262

> <G>
27.974

> <E>
-5.112

> <-TS>
33.086

> <U+W>
-26.574

> <U>
27.751

> <W>
-54.325

> <W(PB)>
-56.570

> <W(SA)>
2.245

> <Valence>
6.249

> <Coulomb>
20.444

> <VdW>
1.057

> <VdW6>
-9.100

> <VdW12>
10.157

> <Bond>
0.302

> <Angle>
1.930

> <Pdih>
4.017

> <Idih>
0.000

> <Tether>
0.000

$$$$
VeraChem MOL file


 26 25  0  0  0  0  0  0  0  0999 V2000     
   21.5625   18.8567   21.1160 C   0  0  0  0  0  0  0  0  0  0  0  0
   21.5829   18.2928   22.0538 H   0  0  0  0  0  0  0  0  0  0  0  0
   22.2320   18.3442   20.4132 H   0  0  0  0  0  0  0  0  0  0  0  0
   21.9807   19.8537   21.3055 H   0  0  0  0  0  0  0  0  0  0  0  0
   20.1372   18.9548   20.5242 C   0  0  0  0  0  0  0  0  0  0  0  0
   19.7293   17.9505   20.3446 H   0  0  0  0  0  0  0  0  0  0  0  0
   20.2181   19.4283   19.5357 H   0  0  0  0  0  0  0  0  0  0  0  0
   19.1526   19.7909   21.3825 C   0  0  0  0  0  0  0  0  0  0  0  0
   19.6771   20.6297   21.8591 H   0  0  0  0  0  0  0  0  0  0  0  0
   18.4275   20.2546   20.6995 H   0  0  0  0  0  0  0  0  0  0  0  0
   18.3394   18.9814   22.4286 C   0  0  0  0  0  0  0  0  0  0  0  0
   17.7753   18.1939   21.9103 H   0  0  0  0  0  0  0  0  0  0  0  0
   17.5788   19.6412   22.8670 H   0  0  0  0  0  0  0  0  0  0  0  0
   19.1635   18.3324   23.5707 C   0  0  0  0  0  0  0  0  0  0  0  0
   18.4726   17.8535   24.2771 H   0  0  0  0  0  0  0  0  0  0  0  0
   19.7660   17.5178   23.1513 H   0  0  0  0  0  0  0  0  0  0  0  0
   20.0836   19.3063   24.3438 C   0  0  1  0  0  0  0  0  0  0  0  0
   20.7515   19.7916   23.6261 H   0  0  0  0  0  0  0  0  0  0  0  0
   19.2827   20.3973   25.0764 C   0  0  0  0  0  0  0  0  0  0  0  0
   18.5616   19.9574   25.7765 H   0  0  0  0  0  0  0  0  0  0  0  0
   18.7329   21.0294   24.3694 H   0  0  0  0  0  0  0  0  0  0  0  0
   19.9533   21.0529   25.6455 H   0  0  0  0  0  0  0  0  0  0  0  0
   20.9665   18.5681   25.3116 N   0  3  0  0  0  0  0  0  0  0  0  0
   21.5394   17.8632   24.8394 H   0  0  0  0  0  0  0  0  0  0  0  0
   21.6049   19.2053   25.7962 H   0  0  0  0  0  0  0  0  0  0  0  0
   20.4154   18.0870   26.0274 H   0  0  0  0  0  0  0  0  0  0  0  0
  1  2  1  0  0  0  0
  1  3  1  0  0  0  0
  1  4  1  0  0  0  0
  1  5  1  0  0  0  0
  5  6  1  0  0  0  0
  5  7  1  0  0  0  0
  5  8  1  0  0  0  0
  8  9  1  0  0  0  0
  8 10  1  0  0  0  0
  8 11  1  0  0  0  0
 11 12  1  0  0  0  0
 11 13  1  0  0  0  0
 11 14  1  0  0  0  0
 14 15  1  0  0  0  0
 14 16  1  0  0  0  0
 14 17  1  0  0  0  0
 17 18  1  0  0  0  0
 17 19  1  0  0  0  0
 19 20  1  0  0  0  0
 19 21  1  0  0  0  0
 19 22  1  0  0  0  0
 17 23  1  0  0  0  0
 23 24  1  0  0  0  0
 23 25  1  0  0  0  0
 23 26  1  0  0  0  0
M  END
> <VM2 Rank>
69

> <Conf_Id>
551

> <Probability>
0.01

> <Sum Probability>
99.93

> <Delta G>
4.471

> <G>
28.183

> <E>
-5.280

> <-TS>
33.463

> <U+W>
-26.742

> <U>
27.819

> <W>
-54.561

> <W(PB)>
-56.769

> <W(SA)>
2.208

> <Valence>
6.496

> <Coulomb>
20.856

> <VdW>
0.467

> <VdW6>
-10.243

> <VdW12>
10.710

> <Bond>
0.303

> <Angle>
2.526

> <Pdih>
3.667

> <Idih>
0.000

> <Tether>
0.000

$$$$
VeraChem MOL file


 26 25  0  0  0  0  0  0  0  0999 V2000     
   20.0171   20.2053   20.1608 C   0  0  0  0  0  0  0  0  0  0  0  0
   20.6287   21.0512   19.8213 H   0  0  0  0  0  0  0  0  0  0  0  0
   19.6794   19.6587   19.2707 H   0  0  0  0  0  0  0  0  0  0  0  0
   19.1348   20.6185   20.6634 H   0  0  0  0  0  0  0  0  0  0  0  0
   20.8369   19.2882   21.0973 C   0  0  0  0  0  0  0  0  0  0  0  0
   21.1655   19.8561   21.9747 H   0  0  0  0  0  0  0  0  0  0  0  0
   21.7560   18.9922   20.5726 H   0  0  0  0  0  0  0  0  0  0  0  0
   20.0799   18.0010   21.5159 C   0  0  0  0  0  0  0  0  0  0  0  0
   19.7624   17.4839   20.5998 H   0  0  0  0  0  0  0  0  0  0  0  0
   20.7772   17.3127   22.0128 H   0  0  0  0  0  0  0  0  0  0  0  0
   18.8327   18.2111   22.4184 C   0  0  0  0  0  0  0  0  0  0  0  0
   18.1435   17.3768   22.2284 H   0  0  0  0  0  0  0  0  0  0  0  0
   18.2764   19.1091   22.1255 H   0  0  0  0  0  0  0  0  0  0  0  0
   19.1271   18.2168   23.9435 C   0  0  0  0  0  0  0  0  0  0  0  0
   18.1727   18.2478   24.4857 H   0  0  0  0  0  0  0  0  0  0  0  0
   19.5910   17.2576   24.2084 H   0  0  0  0  0  0  0  0  0  0  0  0
   20.0295   19.3613   24.4571 C   0  0  1  0  0  0  0  0  0  0  0  0
   20.9734   19.3306   23.9072 H   0  0  0  0  0  0  0  0  0  0  0  0
   19.3797   20.7422   24.2566 C   0  0  0  0  0  0  0  0  0  0  0  0
   20.0273   21.5350   24.6507 H   0  0  0  0  0  0  0  0  0  0  0  0
   18.4137   20.8039   24.7728 H   0  0  0  0  0  0  0  0  0  0  0  0
   19.2133   20.9558   23.1950 H   0  0  0  0  0  0  0  0  0  0  0  0
   20.3851   19.1621   25.9044 N   0  3  0  0  0  0  0  0  0  0  0  0
   19.5527   19.1773   26.4998 H   0  0  0  0  0  0  0  0  0  0  0  0
   20.8562   18.2659   26.0576 H   0  0  0  0  0  0  0  0  0  0  0  0
   21.0135   19.8974   26.2401 H   0  0  0  0  0  0  0  0  0  0  0  0
  1  2  1  0  0  0  0
  1  3  1  0  0  0  0
  1  4  1  0  0  0  0
  1  5  1  0  0  0  0
  5  6  1  0  0  0  0
  5  7  1  0  0  0  0
  5  8  1  0  0  0  0
  8  9  1  0  0  0  0
  8 10  1  0  0  0  0
  8 11  1  0  0  0  0
 11 12  1  0  0  0  0
 11 13  1  0  0  0  0
 11 14  1  0  0  0  0
 14 15  1  0  0  0  0
 14 16  1  0  0  0  0
 14 17  1  0  0  0  0
 17 18  1  0  0  0  0
 17 19  1  0  0  0  0
 19 20  1  0  0  0  0
 19 21  1  0  0  0  0
 19 22  1  0  0  0  0
 17 23  1  0  0  0  0
 23 24  1  0  0  0  0
 23 25  1  0  0  0  0
 23 26  1  0  0  0  0
M  END
> <VM2 Rank>
70

> <Conf_Id>
247

> <Probability>
0.01

> <Sum Probability>
99.94

> <Delta G>
4.506

> <G>
28.218

> <E>
-5.378

> <-TS>
33.596

> <U+W>
-26.840

> <U>
27.574

> <W>
-54.414

> <W(PB)>
-56.626

> <W(SA)>
2.212

> <Valence>
6.650

> <Coulomb>
20.286

> <VdW>
0.638

> <VdW6>
-9.864

> <VdW12>
10.502

> <Bond>
0.322

> <Angle>
2.715

> <Pdih>
3.613

> <Idih>
0.000

> <Tether>
0.000

$$$$
VeraChem MOL file


 26 25  0  0  0  0  0  0  0  0999 V2000     
   20.7053   20.3056   20.8247 C   0  0  0  0  0  0  0  0  0  0  0  0
   21.7072   20.7249   20.6661 H   0  0  0  0  0  0  0  0  0  0  0  0
   20.1036   20.5295   19.9343 H   0  0  0  0  0  0  0  0  0  0  0  0
   20.2587   20.8293   21.6778 H   0  0  0  0  0  0  0  0  0  0  0  0
   20.7884   18.7812   21.0661 C   0  0  0  0  0  0  0  0  0  0  0  0
   21.4066   18.5673   21.9470 H   0  0  0  0  0  0  0  0  0  0  0  0
   21.3161   18.3224   20.2183 H   0  0  0  0  0  0  0  0  0  0  0  0
   19.4029   18.1030   21.2029 C   0  0  0  0  0  0  0  0  0  0  0  0
   18.8543   18.2376   20.2605 H   0  0  0  0  0  0  0  0  0  0  0  0
   19.5505   17.0192   21.3069 H   0  0  0  0  0  0  0  0  0  0  0  0
   18.5063   18.6017   22.3686 C   0  0  0  0  0  0  0  0  0  0  0  0
   17.5502   18.0659   22.2926 H   0  0  0  0  0  0  0  0  0  0  0  0
   18.2522   19.6593   22.2312 H   0  0  0  0  0  0  0  0  0  0  0  0
   19.0802   18.3389   23.7882 C   0  0  0  0  0  0  0  0  0  0  0  0
   18.2465   18.2462   24.4969 H   0  0  0  0  0  0  0  0  0  0  0  0
   19.5800   17.3614   23.7890 H   0  0  0  0  0  0  0  0  0  0  0  0
   20.0537   19.4187   24.3180 C   0  0  1  0  0  0  0  0  0  0  0  0
   20.7899   19.6418   23.5426 H   0  0  0  0  0  0  0  0  0  0  0  0
   19.3209   20.7230   24.6820 C   0  0  0  0  0  0  0  0  0  0  0  0
   18.8252   21.1643   23.8103 H   0  0  0  0  0  0  0  0  0  0  0  0
   20.0284   21.4682   25.0659 H   0  0  0  0  0  0  0  0  0  0  0  0
   18.5609   20.5485   25.4537 H   0  0  0  0  0  0  0  0  0  0  0  0
   20.8302   18.9159   25.5034 N   0  3  0  0  0  0  0  0  0  0  0  0
   20.2114   18.6866   26.2857 H   0  0  0  0  0  0  0  0  0  0  0  0
   21.3630   18.0717   25.2754 H   0  0  0  0  0  0  0  0  0  0  0  0
   21.4979   19.6163   25.8381 H   0  0  0  0  0  0  0  0  0  0  0  0
  1  2  1  0  0  0  0
  1  3  1  0  0  0  0
  1  4  1  0  0  0  0
  1  5  1  0  0  0  0
  5  6  1  0  0  0  0
  5  7  1  0  0  0  0
  5  8  1  0  0  0  0
  8  9  1  0  0  0  0
  8 10  1  0  0  0  0
  8 11  1  0  0  0  0
 11 12  1  0  0  0  0
 11 13  1  0  0  0  0
 11 14  1  0  0  0  0
 14 15  1  0  0  0  0
 14 16  1  0  0  0  0
 14 17  1  0  0  0  0
 17 18  1  0  0  0  0
 17 19  1  0  0  0  0
 19 20  1  0  0  0  0
 19 21  1  0  0  0  0
 19 22  1  0  0  0  0
 17 23  1  0  0  0  0
 23 24  1  0  0  0  0
 23 25  1  0  0  0  0
 23 26  1  0  0  0  0
M  END
> <VM2 Rank>
71

> <Conf_Id>
1003

> <Probability>
0.01

> <Sum Probability>
99.95

> <Delta G>
4.520

> <G>
28.232

> <E>
-5.460

> <-TS>
33.692

> <U+W>
-26.922

> <U>
27.547

> <W>
-54.469

> <W(PB)>
-56.656

> <W(SA)>
2.186

> <Valence>
6.487

> <Coulomb>
20.539

> <VdW>
0.521

> <VdW6>
-10.155

> <VdW12>
10.675

> <Bond>
0.309

> <Angle>
2.564

> <Pdih>
3.615

> <Idih>
0.000

> <Tether>
0.000

$$$$
VeraChem MOL file


 26 25  0  0  0  0  0  0  0  0999 V2000     
   20.7326   18.4120   19.8756 C   0  0  0  0  0  0  0  0  0  0  0  0
   20.8252   19.2789   19.2086 H   0  0  0  0  0  0  0  0  0  0  0  0
   21.6028   18.3957   20.5436 H   0  0  0  0  0  0  0  0  0  0  0  0
   20.7747   17.5060   19.2573 H   0  0  0  0  0  0  0  0  0  0  0  0
   19.4094   18.4624   20.6723 C   0  0  0  0  0  0  0  0  0  0  0  0
   19.3530   17.6009   21.3501 H   0  0  0  0  0  0  0  0  0  0  0  0
   18.5717   18.3428   19.9711 H   0  0  0  0  0  0  0  0  0  0  0  0
   19.2055   19.7844   21.4572 C   0  0  0  0  0  0  0  0  0  0  0  0
   19.1085   20.6046   20.7327 H   0  0  0  0  0  0  0  0  0  0  0  0
   18.2405   19.7373   21.9745 H   0  0  0  0  0  0  0  0  0  0  0  0
   20.3351   20.1552   22.4596 C   0  0  0  0  0  0  0  0  0  0  0  0
   20.1238   21.1410   22.8963 H   0  0  0  0  0  0  0  0  0  0  0  0
   21.2674   20.2897   21.8955 H   0  0  0  0  0  0  0  0  0  0  0  0
   20.5911   19.1317   23.6015 C   0  0  0  0  0  0  0  0  0  0  0  0
   20.3924   18.1078   23.2658 H   0  0  0  0  0  0  0  0  0  0  0  0
   21.6644   19.1597   23.8312 H   0  0  0  0  0  0  0  0  0  0  0  0
   19.8341   19.4138   24.9218 C   0  0  1  0  0  0  0  0  0  0  0  0
   20.1063   20.4172   25.2633 H   0  0  0  0  0  0  0  0  0  0  0  0
   18.3059   19.3610   24.7614 C   0  0  0  0  0  0  0  0  0  0  0  0
   17.9864   18.4230   24.2905 H   0  0  0  0  0  0  0  0  0  0  0  0
   17.9475   20.1994   24.1540 H   0  0  0  0  0  0  0  0  0  0  0  0
   17.8107   19.4390   25.7371 H   0  0  0  0  0  0  0  0  0  0  0  0
   20.2743   18.4675   26.0045 N   0  3  0  0  0  0  0  0  0  0  0  0
   21.2845   18.5194   26.1636 H   0  0  0  0  0  0  0  0  0  0  0  0
   19.8152   18.6787   26.8951 H   0  0  0  0  0  0  0  0  0  0  0  0
   20.0494   17.4976   25.7678 H   0  0  0  0  0  0  0  0  0  0  0  0
  1  2  1  0  0  0  0
  1  3  1  0  0  0  0
  1  4  1  0  0  0  0
  1  5  1  0  0  0  0
  5  6  1  0  0  0  0
  5  7  1  0  0  0  0
  5  8  1  0  0  0  0
  8  9  1  0  0  0  0
  8 10  1  0  0  0  0
  8 11  1  0  0  0  0
 11 12  1  0  0  0  0
 11 13  1  0  0  0  0
 11 14  1  0  0  0  0
 14 15  1  0  0  0  0
 14 16  1  0  0  0  0
 14 17  1  0  0  0  0
 17 18  1  0  0  0  0
 17 19  1  0  0  0  0
 19 20  1  0  0  0  0
 19 21  1  0  0  0  0
 19 22  1  0  0  0  0
 17 23  1  0  0  0  0
 23 24  1  0  0  0  0
 23 25  1  0  0  0  0
 23 26  1  0  0  0  0
M  END
> <VM2 Rank>
72

> <Conf_Id>
136

> <Probability>
0.01

> <Sum Probability>
99.96

> <Delta G>
4.614

> <G>
28.327

> <E>
-4.564

> <-TS>
32.890

> <U+W>
-26.026

> <U>
28.262

> <W>
-54.288

> <W(PB)>
-56.488

> <W(SA)>
2.200

> <Valence>
7.096

> <Coulomb>
19.990

> <VdW>
1.176

> <VdW6>
-9.405

> <VdW12>
10.580

> <Bond>
0.360

> <Angle>
2.785

> <Pdih>
3.951

> <Idih>
0.000

> <Tether>
0.000

$$$$
VeraChem MOL file


 26 25  0  0  0  0  0  0  0  0999 V2000     
   19.7580   18.2347   19.8791 C   0  0  0  0  0  0  0  0  0  0  0  0
   20.5369   18.6069   19.2011 H   0  0  0  0  0  0  0  0  0  0  0  0
   20.1767   17.4053   20.4625 H   0  0  0  0  0  0  0  0  0  0  0  0
   18.9440   17.8286   19.2649 H   0  0  0  0  0  0  0  0  0  0  0  0
   19.2335   19.3628   20.7957 C   0  0  0  0  0  0  0  0  0  0  0  0
   18.4716   18.9581   21.4741 H   0  0  0  0  0  0  0  0  0  0  0  0
   18.7193   20.1107   20.1762 H   0  0  0  0  0  0  0  0  0  0  0  0
   20.3537   20.0731   21.5986 C   0  0  0  0  0  0  0  0  0  0  0  0
   21.0549   20.5317   20.8879 H   0  0  0  0  0  0  0  0  0  0  0  0
   19.9254   20.9108   22.1634 H   0  0  0  0  0  0  0  0  0  0  0  0
   21.1582   19.1578   22.5581 C   0  0  0  0  0  0  0  0  0  0  0  0
   21.9417   19.7582   23.0407 H   0  0  0  0  0  0  0  0  0  0  0  0
   21.6945   18.4041   21.9666 H   0  0  0  0  0  0  0  0  0  0  0  0
   20.3364   18.4350   23.6589 C   0  0  0  0  0  0  0  0  0  0  0  0
   19.5553   17.8047   23.2156 H   0  0  0  0  0  0  0  0  0  0  0  0
   21.0222   17.7369   24.1568 H   0  0  0  0  0  0  0  0  0  0  0  0
   19.7378   19.3823   24.7283 C   0  0  1  0  0  0  0  0  0  0  0  0
   20.3352   20.2990   24.7474 H   0  0  0  0  0  0  0  0  0  0  0  0
   18.2737   19.7514   24.4272 C   0  0  0  0  0  0  0  0  0  0  0  0
   18.1758   20.2734   23.4706 H   0  0  0  0  0  0  0  0  0  0  0  0
   17.8775   20.4183   25.2028 H   0  0  0  0  0  0  0  0  0  0  0  0
   17.6387   18.8574   24.3937 H   0  0  0  0  0  0  0  0  0  0  0  0
   19.8367   18.7908   26.1080 N   0  3  0  0  0  0  0  0  0  0  0  0
   20.8069   18.5806   26.3593 H   0  0  0  0  0  0  0  0  0  0  0  0
   19.4714   19.4328   26.8171 H   0  0  0  0  0  0  0  0  0  0  0  0
   19.3037   17.9201   26.1810 H   0  0  0  0  0  0  0  0  0  0  0  0
  1  2  1  0  0  0  0
  1  3  1  0  0  0  0
  1  4  1  0  0  0  0
  1  5  1  0  0  0  0
  5  6  1  0  0  0  0
  5  7  1  0  0  0  0
  5  8  1  0  0  0  0
  8  9  1  0  0  0  0
  8 10  1  0  0  0  0
  8 11  1  0  0  0  0
 11 12  1  0  0  0  0
 11 13  1  0  0  0  0
 11 14  1  0  0  0  0
 14 15  1  0  0  0  0
 14 16  1  0  0  0  0
 14 17  1  0  0  0  0
 17 18  1  0  0  0  0
 17 19  1  0  0  0  0
 19 20  1  0  0  0  0
 19 21  1  0  0  0  0
 19 22  1  0  0  0  0
 17 23  1  0  0  0  0
 23 24  1  0  0  0  0
 23 25  1  0  0  0  0
 23 26  1  0  0  0  0
M  END
> <VM2 Rank>
73

> <Conf_Id>
159

> <Probability>
0.01

> <Sum Probability>
99.96

> <Delta G>
4.617

> <G>
28.329

> <E>
-5.038

> <-TS>
33.367

> <U+W>
-26.500

> <U>
27.871

> <W>
-54.371

> <W(PB)>
-56.584

> <W(SA)>
2.213

> <Valence>
6.984

> <Coulomb>
20.043

> <VdW>
0.845

> <VdW6>
-9.755

> <VdW12>
10.600

> <Bond>
0.302

> <Angle>
2.443

> <Pdih>
4.239

> <Idih>
0.000

> <Tether>
0.000

$$$$
VeraChem MOL file


 26 25  0  0  0  0  0  0  0  0999 V2000     
   20.8185   17.9925   20.0806 C   0  0  0  0  0  0  0  0  0  0  0  0
   20.9439   17.7820   19.0106 H   0  0  0  0  0  0  0  0  0  0  0  0
   21.7565   18.4318   20.4424 H   0  0  0  0  0  0  0  0  0  0  0  0
   20.6653   17.0350   20.5950 H   0  0  0  0  0  0  0  0  0  0  0  0
   19.6218   18.9439   20.3077 C   0  0  0  0  0  0  0  0  0  0  0  0
   18.7302   18.5128   19.8314 H   0  0  0  0  0  0  0  0  0  0  0  0
   19.8089   19.9005   19.8001 H   0  0  0  0  0  0  0  0  0  0  0  0
   19.3147   19.1953   21.8035 C   0  0  0  0  0  0  0  0  0  0  0  0
   18.3998   19.7992   21.8761 H   0  0  0  0  0  0  0  0  0  0  0  0
   19.1002   18.2329   22.2835 H   0  0  0  0  0  0  0  0  0  0  0  0
   20.4631   19.9179   22.5496 C   0  0  0  0  0  0  0  0  0  0  0  0
   20.7901   20.7724   21.9414 H   0  0  0  0  0  0  0  0  0  0  0  0
   21.3359   19.2566   22.6249 H   0  0  0  0  0  0  0  0  0  0  0  0
   20.0901   20.4573   23.9598 C   0  0  0  0  0  0  0  0  0  0  0  0
   20.9656   20.9967   24.3441 H   0  0  0  0  0  0  0  0  0  0  0  0
   19.3026   21.2168   23.8676 H   0  0  0  0  0  0  0  0  0  0  0  0
   19.6847   19.4175   25.0369 C   0  0  1  0  0  0  0  0  0  0  0  0
   19.8902   19.8781   26.0082 H   0  0  0  0  0  0  0  0  0  0  0  0
   18.1782   19.0986   25.0198 C   0  0  0  0  0  0  0  0  0  0  0  0
   17.8722   18.5685   24.1132 H   0  0  0  0  0  0  0  0  0  0  0  0
   17.5852   20.0186   25.0929 H   0  0  0  0  0  0  0  0  0  0  0  0
   17.9129   18.4687   25.8776 H   0  0  0  0  0  0  0  0  0  0  0  0
   20.5167   18.1650   24.9961 N   0  3  0  0  0  0  0  0  0  0  0  0
   20.2613   17.5200   25.7493 H   0  0  0  0  0  0  0  0  0  0  0  0
   20.3947   17.6711   24.1087 H   0  0  0  0  0  0  0  0  0  0  0  0
   21.5136   18.3757   25.0977 H   0  0  0  0  0  0  0  0  0  0  0  0
  1  2  1  0  0  0  0
  1  3  1  0  0  0  0
  1  4  1  0  0  0  0
  1  5  1  0  0  0  0
  5  6  1  0  0  0  0
  5  7  1  0  0  0  0
  5  8  1  0  0  0  0
  8  9  1  0  0  0  0
  8 10  1  0  0  0  0
  8 11  1  0  0  0  0
 11 12  1  0  0  0  0
 11 13  1  0  0  0  0
 11 14  1  0  0  0  0
 14 15  1  0  0  0  0
 14 16  1  0  0  0  0
 14 17  1  0  0  0  0
 17 18  1  0  0  0  0
 17 19  1  0  0  0  0
 19 20  1  0  0  0  0
 19 21  1  0  0  0  0
 19 22  1  0  0  0  0
 17 23  1  0  0  0  0
 23 24  1  0  0  0  0
 23 25  1  0  0  0  0
 23 26  1  0  0  0  0
M  END
> <VM2 Rank>
74

> <Conf_Id>
559

> <Probability>
0.01

> <Sum Probability>
99.97

> <Delta G>
4.720

> <G>
28.432

> <E>
-4.752

> <-TS>
33.184

> <U+W>
-26.213

> <U>
27.935

> <W>
-54.148

> <W(PB)>
-56.370

> <W(SA)>
2.221

> <Valence>
6.278

> <Coulomb>
20.605

> <VdW>
1.052

> <VdW6>
-9.400

> <VdW12>
10.452

> <Bond>
0.315

> <Angle>
2.523

> <Pdih>
3.440

> <Idih>
0.000

> <Tether>
0.000

$$$$
VeraChem MOL file


 26 25  0  0  0  0  0  0  0  0999 V2000     
   19.6514   18.2681   19.9645 C   0  0  0  0  0  0  0  0  0  0  0  0
   19.5149   17.2690   19.5308 H   0  0  0  0  0  0  0  0  0  0  0  0
   18.6648   18.6291   20.2804 H   0  0  0  0  0  0  0  0  0  0  0  0
   20.0224   18.9306   19.1718 H   0  0  0  0  0  0  0  0  0  0  0  0
   20.6403   18.2132   21.1505 C   0  0  0  0  0  0  0  0  0  0  0  0
   21.5749   17.7465   20.8091 H   0  0  0  0  0  0  0  0  0  0  0  0
   20.2400   17.5523   21.9296 H   0  0  0  0  0  0  0  0  0  0  0  0
   20.9701   19.6102   21.7362 C   0  0  0  0  0  0  0  0  0  0  0  0
   21.7355   19.5127   22.5153 H   0  0  0  0  0  0  0  0  0  0  0  0
   21.4425   20.2139   20.9489 H   0  0  0  0  0  0  0  0  0  0  0  0
   19.7539   20.4008   22.2890 C   0  0  0  0  0  0  0  0  0  0  0  0
   19.1004   20.6710   21.4489 H   0  0  0  0  0  0  0  0  0  0  0  0
   20.1123   21.3566   22.6955 H   0  0  0  0  0  0  0  0  0  0  0  0
   18.8933   19.6895   23.3694 C   0  0  0  0  0  0  0  0  0  0  0  0
   18.0184   20.3281   23.5500 H   0  0  0  0  0  0  0  0  0  0  0  0
   18.4911   18.7430   22.9871 H   0  0  0  0  0  0  0  0  0  0  0  0
   19.6121   19.4598   24.7200 C   0  0  1  0  0  0  0  0  0  0  0  0
   20.1885   20.3588   24.9590 H   0  0  0  0  0  0  0  0  0  0  0  0
   18.5847   19.2348   25.8417 C   0  0  0  0  0  0  0  0  0  0  0  0
   17.9191   20.1012   25.9419 H   0  0  0  0  0  0  0  0  0  0  0  0
   19.0874   19.0909   26.8061 H   0  0  0  0  0  0  0  0  0  0  0  0
   17.9669   18.3502   25.6424 H   0  0  0  0  0  0  0  0  0  0  0  0
   20.5820   18.3115   24.6826 N   0  3  0  0  0  0  0  0  0  0  0  0
   21.0958   18.2268   25.5643 H   0  0  0  0  0  0  0  0  0  0  0  0
   20.0991   17.4237   24.5229 H   0  0  0  0  0  0  0  0  0  0  0  0
   21.2676   18.4300   23.9331 H   0  0  0  0  0  0  0  0  0  0  0  0
  1  2  1  0  0  0  0
  1  3  1  0  0  0  0
  1  4  1  0  0  0  0
  1  5  1  0  0  0  0
  5  6  1  0  0  0  0
  5  7  1  0  0  0  0
  5  8  1  0  0  0  0
  8  9  1  0  0  0  0
  8 10  1  0  0  0  0
  8 11  1  0  0  0  0
 11 12  1  0  0  0  0
 11 13  1  0  0  0  0
 11 14  1  0  0  0  0
 14 15  1  0  0  0  0
 14 16  1  0  0  0  0
 14 17  1  0  0  0  0
 17 18  1  0  0  0  0
 17 19  1  0  0  0  0
 19 20  1  0  0  0  0
 19 21  1  0  0  0  0
 19 22  1  0  0  0  0
 17 23  1  0  0  0  0
 23 24  1  0  0  0  0
 23 25  1  0  0  0  0
 23 26  1  0  0  0  0
M  END
> <VM2 Rank>
75

> <Conf_Id>
433

> <Probability>
0.01

> <Sum Probability>
99.98

> <Delta G>
4.738

> <G>
28.450

> <E>
-4.948

> <-TS>
33.398

> <U+W>
-26.409

> <U>
27.565

> <W>
-53.974

> <W(PB)>
-56.203

> <W(SA)>
2.228

> <Valence>
5.430

> <Coulomb>
21.473

> <VdW>
0.662

> <VdW6>
-9.933

> <VdW12>
10.596

> <Bond>
0.322

> <Angle>
2.461

> <Pdih>
2.647

> <Idih>
0.000

> <Tether>
0.000

$$$$
VeraChem MOL file


 26 25  0  0  0  0  0  0  0  0999 V2000     
   20.9561   17.7825   20.0835 C   0  0  0  0  0  0  0  0  0  0  0  0
   21.8365   17.5212   20.6849 H   0  0  0  0  0  0  0  0  0  0  0  0
   20.5613   16.8570   19.6446 H   0  0  0  0  0  0  0  0  0  0  0  0
   21.2848   18.4310   19.2608 H   0  0  0  0  0  0  0  0  0  0  0  0
   19.8806   18.4794   20.9432 C   0  0  0  0  0  0  0  0  0  0  0  0
   19.5442   17.7862   21.7243 H   0  0  0  0  0  0  0  0  0  0  0  0
   19.0026   18.6989   20.3198 H   0  0  0  0  0  0  0  0  0  0  0  0
   20.4127   19.7915   21.5670 C   0  0  0  0  0  0  0  0  0  0  0  0
   21.3083   19.5969   22.1692 H   0  0  0  0  0  0  0  0  0  0  0  0
   20.7468   20.4531   20.7557 H   0  0  0  0  0  0  0  0  0  0  0  0
   19.3568   20.5559   22.4059 C   0  0  0  0  0  0  0  0  0  0  0  0
   18.5404   20.8649   21.7385 H   0  0  0  0  0  0  0  0  0  0  0  0
   19.8089   21.4883   22.7716 H   0  0  0  0  0  0  0  0  0  0  0  0
   18.7406   19.7949   23.6124 C   0  0  0  0  0  0  0  0  0  0  0  0
   17.9821   20.4565   24.0517 H   0  0  0  0  0  0  0  0  0  0  0  0
   18.1924   18.9067   23.2740 H   0  0  0  0  0  0  0  0  0  0  0  0
   19.7526   19.4085   24.7172 C   0  0  1  0  0  0  0  0  0  0  0  0
   20.4574   20.2363   24.8417 H   0  0  0  0  0  0  0  0  0  0  0  0
   19.0286   19.1871   26.0556 C   0  0  0  0  0  0  0  0  0  0  0  0
   18.5016   20.0966   26.3701 H   0  0  0  0  0  0  0  0  0  0  0  0
   19.7438   18.9293   26.8464 H   0  0  0  0  0  0  0  0  0  0  0  0
   18.2944   18.3752   25.9801 H   0  0  0  0  0  0  0  0  0  0  0  0
   20.5599   18.1880   24.3692 N   0  3  0  0  0  0  0  0  0  0  0  0
   19.9673   17.3557   24.3133 H   0  0  0  0  0  0  0  0  0  0  0  0
   21.0250   18.2969   23.4644 H   0  0  0  0  0  0  0  0  0  0  0  0
   21.2815   18.0034   25.0721 H   0  0  0  0  0  0  0  0  0  0  0  0
  1  2  1  0  0  0  0
  1  3  1  0  0  0  0
  1  4  1  0  0  0  0
  1  5  1  0  0  0  0
  5  6  1  0  0  0  0
  5  7  1  0  0  0  0
  5  8  1  0  0  0  0
  8  9  1  0  0  0  0
  8 10  1  0  0  0  0
  8 11  1  0  0  0  0
 11 12  1  0  0  0  0
 11 13  1  0  0  0  0
 11 14  1  0  0  0  0
 14 15  1  0  0  0  0
 14 16  1  0  0  0  0
 14 17  1  0  0  0  0
 17 18  1  0  0  0  0
 17 19  1  0  0  0  0
 19 20  1  0  0  0  0
 19 21  1  0  0  0  0
 19 22  1  0  0  0  0
 17 23  1  0  0  0  0
 23 24  1  0  0  0  0
 23 25  1  0  0  0  0
 23 26  1  0  0  0  0
M  END
> <VM2 Rank>
76

> <Conf_Id>
831

> <Probability>
0.01

> <Sum Probability>
99.98

> <Delta G>
4.840

> <G>
28.552

> <E>
-4.671

> <-TS>
33.223

> <U+W>
-26.132

> <U>
27.025

> <W>
-53.157

> <W(PB)>
-55.402

> <W(SA)>
2.245

> <Valence>
5.027

> <Coulomb>
21.327

> <VdW>
0.671

> <VdW6>
-9.248

> <VdW12>
9.918

> <Bond>
0.272

> <Angle>
2.162

> <Pdih>
2.594

> <Idih>
0.000

> <Tether>
0.000

$$$$
VeraChem MOL file


 26 25  0  0  0  0  0  0  0  0999 V2000     
   20.6617   17.7451   20.0999 C   0  0  0  0  0  0  0  0  0  0  0  0
   19.9357   17.8439   19.2822 H   0  0  0  0  0  0  0  0  0  0  0  0
   21.6577   17.6303   19.6529 H   0  0  0  0  0  0  0  0  0  0  0  0
   20.4319   16.8242   20.6513 H   0  0  0  0  0  0  0  0  0  0  0  0
   20.6207   18.9762   21.0296 C   0  0  0  0  0  0  0  0  0  0  0  0
   20.8858   19.8748   20.4552 H   0  0  0  0  0  0  0  0  0  0  0  0
   21.3880   18.8633   21.8055 H   0  0  0  0  0  0  0  0  0  0  0  0
   19.2230   19.1628   21.6661 C   0  0  0  0  0  0  0  0  0  0  0  0
   18.4834   19.2670   20.8601 H   0  0  0  0  0  0  0  0  0  0  0  0
   18.9289   18.2617   22.2170 H   0  0  0  0  0  0  0  0  0  0  0  0
   19.1183   20.4102   22.5802 C   0  0  0  0  0  0  0  0  0  0  0  0
   18.0801   20.5114   22.9237 H   0  0  0  0  0  0  0  0  0  0  0  0
   19.3072   21.3032   21.9687 H   0  0  0  0  0  0  0  0  0  0  0  0
   20.0746   20.4520   23.8084 C   0  0  0  0  0  0  0  0  0  0  0  0
   21.1162   20.5075   23.4682 H   0  0  0  0  0  0  0  0  0  0  0  0
   19.8964   21.4003   24.3322 H   0  0  0  0  0  0  0  0  0  0  0  0
   19.9404   19.3146   24.8536 C   0  0  1  0  0  0  0  0  0  0  0  0
   20.5161   19.6221   25.7321 H   0  0  0  0  0  0  0  0  0  0  0  0
   18.4862   19.1057   25.3112 C   0  0  0  0  0  0  0  0  0  0  0  0
   18.0456   20.0518   25.6494 H   0  0  0  0  0  0  0  0  0  0  0  0
   18.4452   18.4009   26.1506 H   0  0  0  0  0  0  0  0  0  0  0  0
   17.8612   18.7036   24.5050 H   0  0  0  0  0  0  0  0  0  0  0  0
   20.5632   18.0215   24.4050 N   0  3  0  0  0  0  0  0  0  0  0  0
   21.5629   18.1347   24.2154 H   0  0  0  0  0  0  0  0  0  0  0  0
   20.4683   17.2935   25.1189 H   0  0  0  0  0  0  0  0  0  0  0  0
   20.1238   17.6782   23.5479 H   0  0  0  0  0  0  0  0  0  0  0  0
  1  2  1  0  0  0  0
  1  3  1  0  0  0  0
  1  4  1  0  0  0  0
  1  5  1  0  0  0  0
  5  6  1  0  0  0  0
  5  7  1  0  0  0  0
  5  8  1  0  0  0  0
  8  9  1  0  0  0  0
  8 10  1  0  0  0  0
  8 11  1  0  0  0  0
 11 12  1  0  0  0  0
 11 13  1  0  0  0  0
 11 14  1  0  0  0  0
 14 15  1  0  0  0  0
 14 16  1  0  0  0  0
 14 17  1  0  0  0  0
 17 18  1  0  0  0  0
 17 19  1  0  0  0  0
 19 20  1  0  0  0  0
 19 21  1  0  0  0  0
 19 22  1  0  0  0  0
 17 23  1  0  0  0  0
 23 24  1  0  0  0  0
 23 25  1  0  0  0  0
 23 26  1  0  0  0  0
M  END
> <VM2 Rank>
77

> <Conf_Id>
860

> <Probability>
0.00

> <Sum Probability>
99.99

> <Delta G>
4.902

> <G>
28.614

> <E>
-5.029

> <-TS>
33.643

> <U+W>
-26.491

> <U>
27.281

> <W>
-53.772

> <W(PB)>
-55.968

> <W(SA)>
2.197

> <Valence>
5.160

> <Coulomb>
21.563

> <VdW>
0.557

> <VdW6>
-10.215

> <VdW12>
10.773

> <Bond>
0.332

> <Angle>
2.658

> <Pdih>
2.170

> <Idih>
0.000

> <Tether>
0.000

$$$$
VeraChem MOL file


 26 25  0  0  0  0  0  0  0  0999 V2000     
   20.1993   19.0780   19.4450 C   0  0  0  0  0  0  0  0  0  0  0  0
   20.5184   18.5804   18.5201 H   0  0  0  0  0  0  0  0  0  0  0  0
   19.2031   19.5043   19.2696 H   0  0  0  0  0  0  0  0  0  0  0  0
   20.8984   19.9021   19.6319 H   0  0  0  0  0  0  0  0  0  0  0  0
   20.1748   18.0717   20.6182 C   0  0  0  0  0  0  0  0  0  0  0  0
   21.1880   17.6857   20.7975 H   0  0  0  0  0  0  0  0  0  0  0  0
   19.5644   17.2063   20.3243 H   0  0  0  0  0  0  0  0  0  0  0  0
   19.5971   18.6609   21.9281 C   0  0  0  0  0  0  0  0  0  0  0  0
   18.5945   19.0675   21.7369 H   0  0  0  0  0  0  0  0  0  0  0  0
   19.4737   17.8332   22.6360 H   0  0  0  0  0  0  0  0  0  0  0  0
   20.4961   19.7501   22.5642 C   0  0  0  0  0  0  0  0  0  0  0  0
   20.7074   20.5234   21.8150 H   0  0  0  0  0  0  0  0  0  0  0  0
   21.4710   19.3172   22.8247 H   0  0  0  0  0  0  0  0  0  0  0  0
   19.8831   20.4668   23.8013 C   0  0  0  0  0  0  0  0  0  0  0  0
   20.5948   21.2426   24.1127 H   0  0  0  0  0  0  0  0  0  0  0  0
   18.9789   21.0117   23.4997 H   0  0  0  0  0  0  0  0  0  0  0  0
   19.5751   19.6023   25.0517 C   0  0  1  0  0  0  0  0  0  0  0  0
   19.6163   20.2752   25.9138 H   0  0  0  0  0  0  0  0  0  0  0  0
   18.1515   19.0149   25.0312 C   0  0  0  0  0  0  0  0  0  0  0  0
   18.0094   18.2849   24.2291 H   0  0  0  0  0  0  0  0  0  0  0  0
   17.4061   19.8094   24.9025 H   0  0  0  0  0  0  0  0  0  0  0  0
   17.9331   18.5119   25.9812 H   0  0  0  0  0  0  0  0  0  0  0  0
   20.6109   18.5434   25.3142 N   0  3  0  0  0  0  0  0  0  0  0  0
   20.6521   17.8694   24.5460 H   0  0  0  0  0  0  0  0  0  0  0  0
   21.5443   18.9519   25.4163 H   0  0  0  0  0  0  0  0  0  0  0  0
   20.4079   18.0244   26.1732 H   0  0  0  0  0  0  0  0  0  0  0  0
  1  2  1  0  0  0  0
  1  3  1  0  0  0  0
  1  4  1  0  0  0  0
  1  5  1  0  0  0  0
  5  6  1  0  0  0  0
  5  7  1  0  0  0  0
  5  8  1  0  0  0  0
  8  9  1  0  0  0  0
  8 10  1  0  0  0  0
  8 11  1  0  0  0  0
 11 12  1  0  0  0  0
 11 13  1  0  0  0  0
 11 14  1  0  0  0  0
 14 15  1  0  0  0  0
 14 16  1  0  0  0  0
 14 17  1  0  0  0  0
 17 18  1  0  0  0  0
 17 19  1  0  0  0  0
 19 20  1  0  0  0  0
 19 21  1  0  0  0  0
 19 22  1  0  0  0  0
 17 23  1  0  0  0  0
 23 24  1  0  0  0  0
 23 25  1  0  0  0  0
 23 26  1  0  0  0  0
M  END
> <VM2 Rank>
78

> <Conf_Id>
83

> <Probability>
0.00

> <Sum Probability>
99.99

> <Delta G>
4.930

> <G>
28.642

> <E>
-4.460

> <-TS>
33.102

> <U+W>
-25.922

> <U>
28.238

> <W>
-54.160

> <W(PB)>
-56.416

> <W(SA)>
2.256

> <Valence>
6.520

> <Coulomb>
20.564

> <VdW>
1.154

> <VdW6>
-9.254

> <VdW12>
10.408

> <Bond>
0.327

> <Angle>
2.699

> <Pdih>
3.494

> <Idih>
0.000

> <Tether>
0.000

$$$$
VeraChem MOL file


 26 25  0  0  0  0  0  0  0  0999 V2000     
   20.7936   19.1846   19.9616 C   0  0  0  0  0  0  0  0  0  0  0  0
   20.7232   20.2427   20.2429 H   0  0  0  0  0  0  0  0  0  0  0  0
   21.7689   19.0346   19.4810 H   0  0  0  0  0  0  0  0  0  0  0  0
   20.0158   18.9740   19.2162 H   0  0  0  0  0  0  0  0  0  0  0  0
   20.6486   18.2613   21.1921 C   0  0  0  0  0  0  0  0  0  0  0  0
   21.4288   18.5048   21.9239 H   0  0  0  0  0  0  0  0  0  0  0  0
   20.8394   17.2251   20.8794 H   0  0  0  0  0  0  0  0  0  0  0  0
   19.2450   18.3297   21.8469 C   0  0  0  0  0  0  0  0  0  0  0  0
   18.4994   18.0134   21.1043 H   0  0  0  0  0  0  0  0  0  0  0  0
   19.1778   17.5886   22.6523 H   0  0  0  0  0  0  0  0  0  0  0  0
   18.8345   19.7265   22.3844 C   0  0  0  0  0  0  0  0  0  0  0  0
   17.8194   19.6620   22.7978 H   0  0  0  0  0  0  0  0  0  0  0  0
   18.7470   20.4176   21.5356 H   0  0  0  0  0  0  0  0  0  0  0  0
   19.7842   20.3671   23.4386 C   0  0  0  0  0  0  0  0  0  0  0  0
   20.7736   20.5348   22.9951 H   0  0  0  0  0  0  0  0  0  0  0  0
   19.3987   21.3705   23.6622 H   0  0  0  0  0  0  0  0  0  0  0  0
   19.9494   19.6255   24.7904 C   0  0  1  0  0  0  0  0  0  0  0  0
   20.4685   20.3122   25.4662 H   0  0  0  0  0  0  0  0  0  0  0  0
   18.5982   19.2796   25.4401 C   0  0  0  0  0  0  0  0  0  0  0  0
   17.9610   20.1698   25.5102 H   0  0  0  0  0  0  0  0  0  0  0  0
   18.7480   18.8967   26.4569 H   0  0  0  0  0  0  0  0  0  0  0  0
   18.0593   18.5136   24.8698 H   0  0  0  0  0  0  0  0  0  0  0  0
   20.8345   18.4138   24.7000 N   0  3  0  0  0  0  0  0  0  0  0  0
   20.4475   17.7222   24.0543 H   0  0  0  0  0  0  0  0  0  0  0  0
   21.7708   18.6593   24.3670 H   0  0  0  0  0  0  0  0  0  0  0  0
   20.9432   17.9619   25.6124 H   0  0  0  0  0  0  0  0  0  0  0  0
  1  2  1  0  0  0  0
  1  3  1  0  0  0  0
  1  4  1  0  0  0  0
  1  5  1  0  0  0  0
  5  6  1  0  0  0  0
  5  7  1  0  0  0  0
  5  8  1  0  0  0  0
  8  9  1  0  0  0  0
  8 10  1  0  0  0  0
  8 11  1  0  0  0  0
 11 12  1  0  0  0  0
 11 13  1  0  0  0  0
 11 14  1  0  0  0  0
 14 15  1  0  0  0  0
 14 16  1  0  0  0  0
 14 17  1  0  0  0  0
 17 18  1  0  0  0  0
 17 19  1  0  0  0  0
 19 20  1  0  0  0  0
 19 21  1  0  0  0  0
 19 22  1  0  0  0  0
 17 23  1  0  0  0  0
 23 24  1  0  0  0  0
 23 25  1  0  0  0  0
 23 26  1  0  0  0  0
M  END
> <VM2 Rank>
79

> <Conf_Id>
421

> <Probability>
0.00

> <Sum Probability>
99.99

> <Delta G>
5.058

> <G>
28.770

> <E>
-5.031

> <-TS>
33.801

> <U+W>
-26.493

> <U>
27.883

> <W>
-54.375

> <W(PB)>
-56.572

> <W(SA)>
2.197

> <Valence>
5.604

> <Coulomb>
21.671

> <VdW>
0.608

> <VdW6>
-10.842

> <VdW12>
11.449

> <Bond>
0.377

> <Angle>
2.942

> <Pdih>
2.284

> <Idih>
0.000

> <Tether>
0.000

$$$$
VeraChem MOL file


 26 25  0  0  0  0  0  0  0  0999 V2000     
   19.8369   19.4877   19.8365 C   0  0  0  0  0  0  0  0  0  0  0  0
   19.0587   19.7668   19.1144 H   0  0  0  0  0  0  0  0  0  0  0  0
   20.2738   20.4153   20.2266 H   0  0  0  0  0  0  0  0  0  0  0  0
   20.6185   18.9408   19.2935 H   0  0  0  0  0  0  0  0  0  0  0  0
   19.2393   18.6234   20.9695 C   0  0  0  0  0  0  0  0  0  0  0  0
   18.7165   17.7666   20.5221 H   0  0  0  0  0  0  0  0  0  0  0  0
   18.4725   19.1986   21.5037 H   0  0  0  0  0  0  0  0  0  0  0  0
   20.3044   18.0890   21.9609 C   0  0  0  0  0  0  0  0  0  0  0  0
   19.8278   17.4187   22.6856 H   0  0  0  0  0  0  0  0  0  0  0  0
   21.0093   17.4551   21.4054 H   0  0  0  0  0  0  0  0  0  0  0  0
   21.1153   19.1790   22.7095 C   0  0  0  0  0  0  0  0  0  0  0  0
   21.7226   19.7246   21.9751 H   0  0  0  0  0  0  0  0  0  0  0  0
   21.8464   18.6889   23.3657 H   0  0  0  0  0  0  0  0  0  0  0  0
   20.2964   20.2206   23.5281 C   0  0  0  0  0  0  0  0  0  0  0  0
   21.0097   20.9691   23.8970 H   0  0  0  0  0  0  0  0  0  0  0  0
   19.6219   20.7781   22.8661 H   0  0  0  0  0  0  0  0  0  0  0  0
   19.5122   19.7036   24.7629 C   0  0  1  0  0  0  0  0  0  0  0  0
   19.3688   20.5655   25.4219 H   0  0  0  0  0  0  0  0  0  0  0  0
   18.1045   19.1894   24.4128 C   0  0  0  0  0  0  0  0  0  0  0  0
   18.1318   18.2648   23.8288 H   0  0  0  0  0  0  0  0  0  0  0  0
   17.5456   19.9408   23.8418 H   0  0  0  0  0  0  0  0  0  0  0  0
   17.5365   18.9845   25.3285 H   0  0  0  0  0  0  0  0  0  0  0  0
   20.2790   18.6953   25.5738 N   0  3  0  0  0  0  0  0  0  0  0  0
   21.1829   19.0688   25.8767 H   0  0  0  0  0  0  0  0  0  0  0  0
   19.7635   18.4197   26.4144 H   0  0  0  0  0  0  0  0  0  0  0  0
   20.4613   17.8482   25.0303 H   0  0  0  0  0  0  0  0  0  0  0  0
  1  2  1  0  0  0  0
  1  3  1  0  0  0  0
  1  4  1  0  0  0  0
  1  5  1  0  0  0  0
  5  6  1  0  0  0  0
  5  7  1  0  0  0  0
  5  8  1  0  0  0  0
  8  9  1  0  0  0  0
  8 10  1  0  0  0  0
  8 11  1  0  0  0  0
 11 12  1  0  0  0  0
 11 13  1  0  0  0  0
 11 14  1  0  0  0  0
 14 15  1  0  0  0  0
 14 16  1  0  0  0  0
 14 17  1  0  0  0  0
 17 18  1  0  0  0  0
 17 19  1  0  0  0  0
 19 20  1  0  0  0  0
 19 21  1  0  0  0  0
 19 22  1  0  0  0  0
 17 23  1  0  0  0  0
 23 24  1  0  0  0  0
 23 25  1  0  0  0  0
 23 26  1  0  0  0  0
M  END
> <VM2 Rank>
80

> <Conf_Id>
30

> <Probability>
0.00

> <Sum Probability>
100.00

> <Delta G>
5.263

> <G>
28.975

> <E>
-4.847

> <-TS>
33.822

> <U+W>
-26.309

> <U>
28.161

> <W>
-54.470

> <W(PB)>
-56.647

> <W(SA)>
2.177

> <Valence>
6.893

> <Coulomb>
20.537

> <VdW>
0.732

> <VdW6>
-10.681

> <VdW12>
11.413

> <Bond>
0.380

> <Angle>
3.328

> <Pdih>
3.185

> <Idih>
0.000

> <Tether>
0.000

$$$$
VeraChem MOL file


 26 25  0  0  0  0  0  0  0  0999 V2000     
   20.2276   20.1768   19.8144 C   0  0  0  0  0  0  0  0  0  0  0  0
   21.0594   20.8414   19.5471 H   0  0  0  0  0  0  0  0  0  0  0  0
   20.0296   19.5228   18.9551 H   0  0  0  0  0  0  0  0  0  0  0  0
   19.3392   20.7995   19.9820 H   0  0  0  0  0  0  0  0  0  0  0  0
   20.5719   19.3518   21.0723 C   0  0  0  0  0  0  0  0  0  0  0  0
   20.8075   20.0372   21.8943 H   0  0  0  0  0  0  0  0  0  0  0  0
   21.4829   18.7671   20.8832 H   0  0  0  0  0  0  0  0  0  0  0  0
   19.4161   18.3982   21.4611 C   0  0  0  0  0  0  0  0  0  0  0  0
   18.4791   18.9557   21.5926 H   0  0  0  0  0  0  0  0  0  0  0  0
   19.2426   17.7175   20.6160 H   0  0  0  0  0  0  0  0  0  0  0  0
   19.7097   17.5420   22.7197 C   0  0  0  0  0  0  0  0  0  0  0  0
   20.7786   17.2922   22.7674 H   0  0  0  0  0  0  0  0  0  0  0  0
   19.1891   16.5816   22.6005 H   0  0  0  0  0  0  0  0  0  0  0  0
   19.2448   18.1529   24.0692 C   0  0  0  0  0  0  0  0  0  0  0  0
   18.1608   18.3274   24.0490 H   0  0  0  0  0  0  0  0  0  0  0  0
   19.4014   17.3862   24.8395 H   0  0  0  0  0  0  0  0  0  0  0  0
   19.9904   19.4416   24.4905 C   0  0  1  0  0  0  0  0  0  0  0  0
   20.9329   19.4880   23.9376 H   0  0  0  0  0  0  0  0  0  0  0  0
   19.1630   20.7025   24.1794 C   0  0  0  0  0  0  0  0  0  0  0  0
   18.2358   20.7209   24.7657 H   0  0  0  0  0  0  0  0  0  0  0  0
   18.8904   20.7543   23.1196 H   0  0  0  0  0  0  0  0  0  0  0  0
   19.7336   21.6080   24.4194 H   0  0  0  0  0  0  0  0  0  0  0  0
   20.3645   19.4223   25.9475 N   0  3  0  0  0  0  0  0  0  0  0  0
   20.8838   20.2644   26.2116 H   0  0  0  0  0  0  0  0  0  0  0  0
   19.5357   19.3748   26.5462 H   0  0  0  0  0  0  0  0  0  0  0  0
   20.9552   18.6171   26.1743 H   0  0  0  0  0  0  0  0  0  0  0  0
  1  2  1  0  0  0  0
  1  3  1  0  0  0  0
  1  4  1  0  0  0  0
  1  5  1  0  0  0  0
  5  6  1  0  0  0  0
  5  7  1  0  0  0  0
  5  8  1  0  0  0  0
  8  9  1  0  0  0  0
  8 10  1  0  0  0  0
  8 11  1  0  0  0  0
 11 12  1  0  0  0  0
 11 13  1  0  0  0  0
 11 14  1  0  0  0  0
 14 15  1  0  0  0  0
 14 16  1  0  0  0  0
 14 17  1  0  0  0  0
 17 18  1  0  0  0  0
 17 19  1  0  0  0  0
 19 20  1  0  0  0  0
 19 21  1  0  0  0  0
 19 22  1  0  0  0  0
 17 23  1  0  0  0  0
 23 24  1  0  0  0  0
 23 25  1  0  0  0  0
 23 26  1  0  0  0  0
M  END
> <VM2 Rank>
81

> <Conf_Id>
85

> <Probability>
0.00

> <Sum Probability>
100.00

> <Delta G>
5.954

> <G>
29.666

> <E>
-3.530

> <-TS>
33.196

> <U+W>
-24.992

> <U>
29.319

> <W>
-54.311

> <W(PB)>
-56.566

> <W(SA)>
2.254

> <Valence>
8.264

> <Coulomb>
20.281

> <VdW>
0.774

> <VdW6>
-9.226

> <VdW12>
10.000

> <Bond>
0.262

> <Angle>
2.116

> <Pdih>
5.886

> <Idih>
0.000

> <Tether>
0.000

$$$$
VeraChem MOL file


 26 25  0  0  0  0  0  0  0  0999 V2000     
   20.0038   20.4644   20.8048 C   0  0  0  0  0  0  0  0  0  0  0  0
   20.6933   21.3096   20.6823 H   0  0  0  0  0  0  0  0  0  0  0  0
   19.3926   20.3994   19.8952 H   0  0  0  0  0  0  0  0  0  0  0  0
   19.3333   20.6959   21.6394 H   0  0  0  0  0  0  0  0  0  0  0  0
   20.7888   19.1513   21.0318 C   0  0  0  0  0  0  0  0  0  0  0  0
   21.5008   19.2599   21.8609 H   0  0  0  0  0  0  0  0  0  0  0  0
   21.4009   18.9670   20.1378 H   0  0  0  0  0  0  0  0  0  0  0  0
   19.8696   17.9254   21.2619 C   0  0  0  0  0  0  0  0  0  0  0  0
   18.9049   18.0761   20.7580 H   0  0  0  0  0  0  0  0  0  0  0  0
   20.3280   17.0617   20.7604 H   0  0  0  0  0  0  0  0  0  0  0  0
   19.6372   17.5273   22.7445 C   0  0  0  0  0  0  0  0  0  0  0  0
   20.5918   17.2512   23.2102 H   0  0  0  0  0  0  0  0  0  0  0  0
   19.0396   16.6052   22.7426 H   0  0  0  0  0  0  0  0  0  0  0  0
   18.8846   18.5734   23.6100 C   0  0  0  0  0  0  0  0  0  0  0  0
   18.0863   19.0286   23.0093 H   0  0  0  0  0  0  0  0  0  0  0  0
   18.3789   18.0505   24.4327 H   0  0  0  0  0  0  0  0  0  0  0  0
   19.7839   19.6748   24.2175 C   0  0  1  0  0  0  0  0  0  0  0  0
   20.3470   20.1527   23.4126 H   0  0  0  0  0  0  0  0  0  0  0  0
   18.9226   20.7489   24.9008 C   0  0  0  0  0  0  0  0  0  0  0  0
   18.3383   20.3235   25.7263 H   0  0  0  0  0  0  0  0  0  0  0  0
   18.2243   21.2019   24.1861 H   0  0  0  0  0  0  0  0  0  0  0  0
   19.5515   21.5516   25.3051 H   0  0  0  0  0  0  0  0  0  0  0  0
   20.7975   19.1226   25.1826 N   0  3  0  0  0  0  0  0  0  0  0  0
   21.4079   18.4355   24.7329 H   0  0  0  0  0  0  0  0  0  0  0  0
   21.3955   19.8623   25.5616 H   0  0  0  0  0  0  0  0  0  0  0  0
   20.3443   18.6600   25.9750 H   0  0  0  0  0  0  0  0  0  0  0  0
  1  2  1  0  0  0  0
  1  3  1  0  0  0  0
  1  4  1  0  0  0  0
  1  5  1  0  0  0  0
  5  6  1  0  0  0  0
  5  7  1  0  0  0  0
  5  8  1  0  0  0  0
  8  9  1  0  0  0  0
  8 10  1  0  0  0  0
  8 11  1  0  0  0  0
 11 12  1  0  0  0  0
 11 13  1  0  0  0  0
 11 14  1  0  0  0  0
 14 15  1  0  0  0  0
 14 16  1  0  0  0  0
 14 17  1  0  0  0  0
 17 18  1  0  0  0  0
 17 19  1  0  0  0  0
 19 20  1  0  0  0  0
 19 21  1  0  0  0  0
 19 22  1  0  0  0  0
 17 23  1  0  0  0  0
 23 24  1  0  0  0  0
 23 25  1  0  0  0  0
 23 26  1  0  0  0  0
M  END
> <VM2 Rank>
82

> <Conf_Id>
73

> <Probability>
0.00

> <Sum Probability>
100.00

> <Delta G>
5.962

> <G>
29.674

> <E>
-3.801

> <-TS>
33.475

> <U+W>
-25.263

> <U>
29.018

> <W>
-54.280

> <W(PB)>
-56.487

> <W(SA)>
2.207

> <Valence>
7.756

> <Coulomb>
20.779

> <VdW>
0.484

> <VdW6>
-10.173

> <VdW12>
10.657

> <Bond>
0.300

> <Angle>
2.387

> <Pdih>
5.069

> <Idih>
0.000

> <Tether>
0.000

$$$$
VeraChem MOL file


 26 25  0  0  0  0  0  0  0  0999 V2000     
   19.1228   18.4513   20.2129 C   0  0  0  0  0  0  0  0  0  0  0  0
   18.8678   18.2363   19.1671 H   0  0  0  0  0  0  0  0  0  0  0  0
   18.8004   17.5952   20.8194 H   0  0  0  0  0  0  0  0  0  0  0  0
   18.5445   19.3322   20.5181 H   0  0  0  0  0  0  0  0  0  0  0  0
   20.6407   18.6966   20.3590 C   0  0  0  0  0  0  0  0  0  0  0  0
   20.9281   19.5741   19.7630 H   0  0  0  0  0  0  0  0  0  0  0  0
   21.1795   17.8435   19.9235 H   0  0  0  0  0  0  0  0  0  0  0  0
   21.1130   18.8845   21.8230 C   0  0  0  0  0  0  0  0  0  0  0  0
   20.9032   17.9719   22.3936 H   0  0  0  0  0  0  0  0  0  0  0  0
   22.2072   18.9847   21.8085 H   0  0  0  0  0  0  0  0  0  0  0  0
   20.5200   20.1347   22.5288 C   0  0  0  0  0  0  0  0  0  0  0  0
   20.3045   20.9016   21.7721 H   0  0  0  0  0  0  0  0  0  0  0  0
   21.2820   20.5817   23.1823 H   0  0  0  0  0  0  0  0  0  0  0  0
   19.2380   19.8640   23.3630 C   0  0  0  0  0  0  0  0  0  0  0  0
   18.6254   20.7752   23.3461 H   0  0  0  0  0  0  0  0  0  0  0  0
   18.6280   19.0803   22.8981 H   0  0  0  0  0  0  0  0  0  0  0  0
   19.5176   19.5083   24.8417 C   0  0  1  0  0  0  0  0  0  0  0  0
   20.1008   20.3232   25.2814 H   0  0  0  0  0  0  0  0  0  0  0  0
   18.1976   19.3889   25.6203 C   0  0  0  0  0  0  0  0  0  0  0  0
   17.6255   20.3234   25.5641 H   0  0  0  0  0  0  0  0  0  0  0  0
   18.3892   19.1798   26.6800 H   0  0  0  0  0  0  0  0  0  0  0  0
   17.5723   18.5810   25.2201 H   0  0  0  0  0  0  0  0  0  0  0  0
   20.3383   18.2597   25.0053 N   0  3  0  0  0  0  0  0  0  0  0  0
   19.8497   17.4418   24.6323 H   0  0  0  0  0  0  0  0  0  0  0  0
   21.2324   18.3399   24.5134 H   0  0  0  0  0  0  0  0  0  0  0  0
   20.5436   18.0729   25.9910 H   0  0  0  0  0  0  0  0  0  0  0  0
  1  2  1  0  0  0  0
  1  3  1  0  0  0  0
  1  4  1  0  0  0  0
  1  5  1  0  0  0  0
  5  6  1  0  0  0  0
  5  7  1  0  0  0  0
  5  8  1  0  0  0  0
  8  9  1  0  0  0  0
  8 10  1  0  0  0  0
  8 11  1  0  0  0  0
 11 12  1  0  0  0  0
 11 13  1  0  0  0  0
 11 14  1  0  0  0  0
 14 15  1  0  0  0  0
 14 16  1  0  0  0  0
 14 17  1  0  0  0  0
 17 18  1  0  0  0  0
 17 19  1  0  0  0  0
 19 20  1  0  0  0  0
 19 21  1  0  0  0  0
 19 22  1  0  0  0  0
 17 23  1  0  0  0  0
 23 24  1  0  0  0  0
 23 25  1  0  0  0  0
 23 26  1  0  0  0  0
M  END
> <VM2 Rank>
83

> <Conf_Id>
260

> <Probability>
0.00

> <Sum Probability>
100.00

> <Delta G>
6.145

> <G>
29.858

> <E>
-3.254

> <-TS>
33.112

> <U+W>
-24.716

> <U>
29.339

> <W>
-54.055

> <W(PB)>
-56.308

> <W(SA)>
2.253

> <Valence>
7.537

> <Coulomb>
20.791

> <VdW>
1.011

> <VdW6>
-9.264

> <VdW12>
10.275

> <Bond>
0.315

> <Angle>
1.806

> <Pdih>
5.416

> <Idih>
0.000

> <Tether>
0.000

$$$$
VeraChem MOL file


 26 25  0  0  0  0  0  0  0  0999 V2000     
   20.1679   19.9957   20.0630 C   0  0  0  0  0  0  0  0  0  0  0  0
   21.0487   20.3165   20.6330 H   0  0  0  0  0  0  0  0  0  0  0  0
   20.3723   20.1926   19.0026 H   0  0  0  0  0  0  0  0  0  0  0  0
   19.3140   20.6176   20.3609 H   0  0  0  0  0  0  0  0  0  0  0  0
   19.8691   18.4969   20.2860 C   0  0  0  0  0  0  0  0  0  0  0  0
   20.7493   17.9030   20.0026 H   0  0  0  0  0  0  0  0  0  0  0  0
   19.0641   18.1924   19.6026 H   0  0  0  0  0  0  0  0  0  0  0  0
   19.4475   18.1428   21.7349 C   0  0  0  0  0  0  0  0  0  0  0  0
   18.5191   18.6692   21.9883 H   0  0  0  0  0  0  0  0  0  0  0  0
   19.1984   17.0729   21.7561 H   0  0  0  0  0  0  0  0  0  0  0  0
   20.5433   18.4061   22.8035 C   0  0  0  0  0  0  0  0  0  0  0  0
   21.5302   18.2927   22.3343 H   0  0  0  0  0  0  0  0  0  0  0  0
   20.4976   17.6184   23.5662 H   0  0  0  0  0  0  0  0  0  0  0  0
   20.4599   19.8017   23.4876 C   0  0  0  0  0  0  0  0  0  0  0  0
   21.4814   20.1487   23.6909 H   0  0  0  0  0  0  0  0  0  0  0  0
   20.0341   20.5396   22.7975 H   0  0  0  0  0  0  0  0  0  0  0  0
   19.6740   19.8518   24.8214 C   0  0  1  0  0  0  0  0  0  0  0  0
   19.7000   20.8882   25.1721 H   0  0  0  0  0  0  0  0  0  0  0  0
   18.1972   19.4573   24.6552 C   0  0  0  0  0  0  0  0  0  0  0  0
   17.7152   20.0703   23.8837 H   0  0  0  0  0  0  0  0  0  0  0  0
   17.6499   19.6140   25.5928 H   0  0  0  0  0  0  0  0  0  0  0  0
   18.0910   18.4019   24.3771 H   0  0  0  0  0  0  0  0  0  0  0  0
   20.3291   19.0358   25.9024 N   0  3  0  0  0  0  0  0  0  0  0  0
   20.3395   18.0412   25.6642 H   0  0  0  0  0  0  0  0  0  0  0  0
   21.2989   19.3258   26.0564 H   0  0  0  0  0  0  0  0  0  0  0  0
   19.8361   19.1325   26.7946 H   0  0  0  0  0  0  0  0  0  0  0  0
  1  2  1  0  0  0  0
  1  3  1  0  0  0  0
  1  4  1  0  0  0  0
  1  5  1  0  0  0  0
  5  6  1  0  0  0  0
  5  7  1  0  0  0  0
  5  8  1  0  0  0  0
  8  9  1  0  0  0  0
  8 10  1  0  0  0  0
  8 11  1  0  0  0  0
 11 12  1  0  0  0  0
 11 13  1  0  0  0  0
 11 14  1  0  0  0  0
 14 15  1  0  0  0  0
 14 16  1  0  0  0  0
 14 17  1  0  0  0  0
 17 18  1  0  0  0  0
 17 19  1  0  0  0  0
 19 20  1  0  0  0  0
 19 21  1  0  0  0  0
 19 22  1  0  0  0  0
 17 23  1  0  0  0  0
 23 24  1  0  0  0  0
 23 25  1  0  0  0  0
 23 26  1  0  0  0  0
M  END
> <VM2 Rank>
84

> <Conf_Id>
447

> <Probability>
0.00

> <Sum Probability>
100.00

> <Delta G>
6.342

> <G>
30.054

> <E>
-3.334

> <-TS>
33.388

> <U+W>
-24.795

> <U>
29.609

> <W>
-54.405

> <W(PB)>
-56.600

> <W(SA)>
2.195

> <Valence>
8.402

> <Coulomb>
20.135

> <VdW>
1.073

> <VdW6>
-9.966

> <VdW12>
11.038

> <Bond>
0.358

> <Angle>
2.261

> <Pdih>
5.783

> <Idih>
0.000

> <Tether>
0.000

$$$$
VeraChem MOL file


 26 25  0  0  0  0  0  0  0  0999 V2000     
   21.5064   18.5803   21.1445 C   0  0  0  0  0  0  0  0  0  0  0  0
   21.3988   18.0450   22.0940 H   0  0  0  0  0  0  0  0  0  0  0  0
   21.4563   17.8381   20.3371 H   0  0  0  0  0  0  0  0  0  0  0  0
   22.5075   19.0299   21.1216 H   0  0  0  0  0  0  0  0  0  0  0  0
   20.4188   19.6640   20.9596 C   0  0  0  0  0  0  0  0  0  0  0  0
   20.5573   20.1143   19.9666 H   0  0  0  0  0  0  0  0  0  0  0  0
   20.5565   20.4832   21.6780 H   0  0  0  0  0  0  0  0  0  0  0  0
   18.9794   19.0983   21.0504 C   0  0  0  0  0  0  0  0  0  0  0  0
   18.3679   19.6097   20.2940 H   0  0  0  0  0  0  0  0  0  0  0  0
   18.9699   18.0377   20.7634 H   0  0  0  0  0  0  0  0  0  0  0  0
   18.2704   19.2841   22.4190 C   0  0  0  0  0  0  0  0  0  0  0  0
   17.2420   18.9153   22.3023 H   0  0  0  0  0  0  0  0  0  0  0  0
   18.1665   20.3528   22.6422 H   0  0  0  0  0  0  0  0  0  0  0  0
   18.9061   18.5240   23.6151 C   0  0  0  0  0  0  0  0  0  0  0  0
   18.1319   18.3574   24.3757 H   0  0  0  0  0  0  0  0  0  0  0  0
   19.2076   17.5248   23.2748 H   0  0  0  0  0  0  0  0  0  0  0  0
   20.1077   19.2260   24.2936 C   0  0  1  0  0  0  0  0  0  0  0  0
   20.8414   19.4880   23.5281 H   0  0  0  0  0  0  0  0  0  0  0  0
   19.6916   20.5149   25.0256 C   0  0  0  0  0  0  0  0  0  0  0  0
   19.3100   21.2686   24.3279 H   0  0  0  0  0  0  0  0  0  0  0  0
   20.5512   20.9596   25.5419 H   0  0  0  0  0  0  0  0  0  0  0  0
   18.9141   20.3139   25.7731 H   0  0  0  0  0  0  0  0  0  0  0  0
   20.8077   18.2964   25.2462 N   0  3  0  0  0  0  0  0  0  0  0  0
   20.1890   18.0082   26.0089 H   0  0  0  0  0  0  0  0  0  0  0  0
   21.1323   17.4467   24.7762 H   0  0  0  0  0  0  0  0  0  0  0  0
   21.6263   18.7420   25.6703 H   0  0  0  0  0  0  0  0  0  0  0  0
  1  2  1  0  0  0  0
  1  3  1  0  0  0  0
  1  4  1  0  0  0  0
  1  5  1  0  0  0  0
  5  6  1  0  0  0  0
  5  7  1  0  0  0  0
  5  8  1  0  0  0  0
  8  9  1  0  0  0  0
  8 10  1  0  0  0  0
  8 11  1  0  0  0  0
 11 12  1  0  0  0  0
 11 13  1  0  0  0  0
 11 14  1  0  0  0  0
 14 15  1  0  0  0  0
 14 16  1  0  0  0  0
 14 17  1  0  0  0  0
 17 18  1  0  0  0  0
 17 19  1  0  0  0  0
 19 20  1  0  0  0  0
 19 21  1  0  0  0  0
 19 22  1  0  0  0  0
 17 23  1  0  0  0  0
 23 24  1  0  0  0  0
 23 25  1  0  0  0  0
 23 26  1  0  0  0  0
M  END
> <VM2 Rank>
85

> <Conf_Id>
680

> <Probability>
0.00

> <Sum Probability>
100.00

> <Delta G>
6.574

> <G>
30.286

> <E>
-3.096

> <-TS>
33.382

> <U+W>
-24.558

> <U>
29.944

> <W>
-54.502

> <W(PB)>
-56.699

> <W(SA)>
2.197

> <Valence>
8.447

> <Coulomb>
20.857

> <VdW>
0.639

> <VdW6>
-10.247

> <VdW12>
10.886

> <Bond>
0.318

> <Angle>
2.793

> <Pdih>
5.337

> <Idih>
0.000

> <Tether>
0.000

$$$$
VeraChem MOL file


 26 25  0  0  0  0  0  0  0  0999 V2000     
   21.4423   18.0965   20.3360 C   0  0  0  0  0  0  0  0  0  0  0  0
   20.9368   17.8847   19.3847 H   0  0  0  0  0  0  0  0  0  0  0  0
   22.4841   18.3601   20.1113 H   0  0  0  0  0  0  0  0  0  0  0  0
   21.4494   17.1739   20.9307 H   0  0  0  0  0  0  0  0  0  0  0  0
   20.7410   19.2450   21.0912 C   0  0  0  0  0  0  0  0  0  0  0  0
   20.7839   20.1577   20.4803 H   0  0  0  0  0  0  0  0  0  0  0  0
   21.2961   19.4718   22.0093 H   0  0  0  0  0  0  0  0  0  0  0  0
   19.2614   18.9080   21.3987 C   0  0  0  0  0  0  0  0  0  0  0  0
   18.7220   18.8612   20.4424 H   0  0  0  0  0  0  0  0  0  0  0  0
   19.1632   17.9071   21.8394 H   0  0  0  0  0  0  0  0  0  0  0  0
   18.5719   19.9629   22.3013 C   0  0  0  0  0  0  0  0  0  0  0  0
   17.5368   20.0816   21.9520 H   0  0  0  0  0  0  0  0  0  0  0  0
   19.0419   20.9462   22.1610 H   0  0  0  0  0  0  0  0  0  0  0  0
   18.5119   19.6162   23.8145 C   0  0  0  0  0  0  0  0  0  0  0  0
   17.9351   20.4125   24.3037 H   0  0  0  0  0  0  0  0  0  0  0  0
   17.9334   18.6952   23.9653 H   0  0  0  0  0  0  0  0  0  0  0  0
   19.8814   19.4930   24.5227 C   0  0  1  0  0  0  0  0  0  0  0  0
   20.5392   20.2805   24.1424 H   0  0  0  0  0  0  0  0  0  0  0  0
   19.7212   19.6899   26.0392 C   0  0  0  0  0  0  0  0  0  0  0  0
   19.3036   20.6795   26.2630 H   0  0  0  0  0  0  0  0  0  0  0  0
   20.6920   19.6188   26.5451 H   0  0  0  0  0  0  0  0  0  0  0  0
   19.0547   18.9320   26.4696 H   0  0  0  0  0  0  0  0  0  0  0  0
   20.5568   18.1766   24.2503 N   0  3  0  0  0  0  0  0  0  0  0  0
   20.0078   17.3945   24.6171 H   0  0  0  0  0  0  0  0  0  0  0  0
   20.6766   18.0285   23.2437 H   0  0  0  0  0  0  0  0  0  0  0  0
   21.4825   18.1329   24.6864 H   0  0  0  0  0  0  0  0  0  0  0  0
  1  2  1  0  0  0  0
  1  3  1  0  0  0  0
  1  4  1  0  0  0  0
  1  5  1  0  0  0  0
  5  6  1  0  0  0  0
  5  7  1  0  0  0  0
  5  8  1  0  0  0  0
  8  9  1  0  0  0  0
  8 10  1  0  0  0  0
  8 11  1  0  0  0  0
 11 12  1  0  0  0  0
 11 13  1  0  0  0  0
 11 14  1  0  0  0  0
 14 15  1  0  0  0  0
 14 16  1  0  0  0  0
 14 17  1  0  0  0  0
 17 18  1  0  0  0  0
 17 19  1  0  0  0  0
 19 20  1  0  0  0  0
 19 21  1  0  0  0  0
 19 22  1  0  0  0  0
 17 23  1  0  0  0  0
 23 24  1  0  0  0  0
 23 25  1  0  0  0  0
 23 26  1  0  0  0  0
M  END
> <VM2 Rank>
86

> <Conf_Id>
294

> <Probability>
0.00

> <Sum Probability>
100.00

> <Delta G>
7.070

> <G>
30.782

> <E>
-2.479

> <-TS>
33.261

> <U+W>
-23.941

> <U>
28.934

> <W>
-52.876

> <W(PB)>
-55.146

> <W(SA)>
2.271

> <Valence>
7.029

> <Coulomb>
21.124

> <VdW>
0.781

> <VdW6>
-9.551

> <VdW12>
10.332

> <Bond>
0.264

> <Angle>
2.108

> <Pdih>
4.657

> <Idih>
0.000

> <Tether>
0.000

$$$$
VeraChem MOL file


 26 25  0  0  0  0  0  0  0  0999 V2000     
   20.9178   19.5753   19.9556 C   0  0  0  0  0  0  0  0  0  0  0  0
   20.2471   20.4357   20.0689 H   0  0  0  0  0  0  0  0  0  0  0  0
   21.9102   19.9615   19.6896 H   0  0  0  0  0  0  0  0  0  0  0  0
   20.5578   18.9709   19.1128 H   0  0  0  0  0  0  0  0  0  0  0  0
   20.9936   18.7340   21.2502 C   0  0  0  0  0  0  0  0  0  0  0  0
   21.3810   19.3615   22.0621 H   0  0  0  0  0  0  0  0  0  0  0  0
   21.7273   17.9296   21.0998 H   0  0  0  0  0  0  0  0  0  0  0  0
   19.6310   18.1028   21.6377 C   0  0  0  0  0  0  0  0  0  0  0  0
   19.2058   17.6313   20.7406 H   0  0  0  0  0  0  0  0  0  0  0  0
   19.7792   17.2789   22.3481 H   0  0  0  0  0  0  0  0  0  0  0  0
   18.5975   19.1109   22.2079 C   0  0  0  0  0  0  0  0  0  0  0  0
   17.6055   18.8231   21.8333 H   0  0  0  0  0  0  0  0  0  0  0  0
   18.7775   20.1174   21.8091 H   0  0  0  0  0  0  0  0  0  0  0  0
   18.5052   19.1748   23.7570 C   0  0  0  0  0  0  0  0  0  0  0  0
   17.6802   19.8574   24.0009 H   0  0  0  0  0  0  0  0  0  0  0  0
   18.2088   18.1962   24.1573 H   0  0  0  0  0  0  0  0  0  0  0  0
   19.7830   19.6689   24.4743 C   0  0  1  0  0  0  0  0  0  0  0  0
   20.2243   20.4737   23.8785 H   0  0  0  0  0  0  0  0  0  0  0  0
   19.4371   20.2311   25.8630 C   0  0  0  0  0  0  0  0  0  0  0  0
   18.9738   19.4649   26.4972 H   0  0  0  0  0  0  0  0  0  0  0  0
   18.7400   21.0745   25.7807 H   0  0  0  0  0  0  0  0  0  0  0  0
   20.3387   20.5959   26.3703 H   0  0  0  0  0  0  0  0  0  0  0  0
   20.8229   18.5903   24.6084 N   0  3  0  0  0  0  0  0  0  0  0  0
   20.4865   17.8209   25.1935 H   0  0  0  0  0  0  0  0  0  0  0  0
   21.0675   18.2009   23.6939 H   0  0  0  0  0  0  0  0  0  0  0  0
   21.6814   18.9484   25.0367 H   0  0  0  0  0  0  0  0  0  0  0  0
  1  2  1  0  0  0  0
  1  3  1  0  0  0  0
  1  4  1  0  0  0  0
  1  5  1  0  0  0  0
  5  6  1  0  0  0  0
  5  7  1  0  0  0  0
  5  8  1  0  0  0  0
  8  9  1  0  0  0  0
  8 10  1  0  0  0  0
  8 11  1  0  0  0  0
 11 12  1  0  0  0  0
 11 13  1  0  0  0  0
 11 14  1  0  0  0  0
 14 15  1  0  0  0  0
 14 16  1  0  0  0  0
 14 17  1  0  0  0  0
 17 18  1  0  0  0  0
 17 19  1  0  0  0  0
 19 20  1  0  0  0  0
 19 21  1  0  0  0  0
 19 22  1  0  0  0  0
 17 23  1  0  0  0  0
 23 24  1  0  0  0  0
 23 25  1  0  0  0  0
 23 26  1  0  0  0  0
M  END
> <VM2 Rank>
87

> <Conf_Id>
250

> <Probability>
0.00

> <Sum Probability>
100.00

> <Delta G>
7.299

> <G>
31.011

> <E>
-2.223

> <-TS>
33.234

> <U+W>
-23.685

> <U>
30.033

> <W>
-53.718

> <W(PB)>
-55.957

> <W(SA)>
2.239

> <Valence>
7.747

> <Coulomb>
21.341

> <VdW>
0.945

> <VdW6>
-9.749

> <VdW12>
10.694

> <Bond>
0.311

> <Angle>
2.246

> <Pdih>
5.191

> <Idih>
0.000

> <Tether>
0.000

$$$$
VeraChem MOL file


 26 25  0  0  0  0  0  0  0  0999 V2000     
   20.4647   17.6308   20.2300 C   0  0  0  0  0  0  0  0  0  0  0  0
   19.8936   16.7594   19.8840 H   0  0  0  0  0  0  0  0  0  0  0  0
   20.8038   18.1835   19.3441 H   0  0  0  0  0  0  0  0  0  0  0  0
   21.3515   17.2626   20.7620 H   0  0  0  0  0  0  0  0  0  0  0  0
   19.5971   18.5241   21.1412 C   0  0  0  0  0  0  0  0  0  0  0  0
   19.2331   17.9307   21.9874 H   0  0  0  0  0  0  0  0  0  0  0  0
   18.7043   18.8466   20.5871 H   0  0  0  0  0  0  0  0  0  0  0  0
   20.3759   19.7703   21.6268 C   0  0  0  0  0  0  0  0  0  0  0  0
   21.3444   19.4849   22.0581 H   0  0  0  0  0  0  0  0  0  0  0  0
   20.6179   20.3804   20.7453 H   0  0  0  0  0  0  0  0  0  0  0  0
   19.5747   20.6475   22.6247 C   0  0  0  0  0  0  0  0  0  0  0  0
   18.4966   20.4650   22.5248 H   0  0  0  0  0  0  0  0  0  0  0  0
   19.7124   21.6960   22.3264 H   0  0  0  0  0  0  0  0  0  0  0  0
   20.0190   20.5371   24.1124 C   0  0  0  0  0  0  0  0  0  0  0  0
   21.0871   20.7792   24.1889 H   0  0  0  0  0  0  0  0  0  0  0  0
   19.5033   21.3257   24.6762 H   0  0  0  0  0  0  0  0  0  0  0  0
   19.7558   19.1963   24.8418 C   0  0  1  0  0  0  0  0  0  0  0  0
   20.0341   19.3455   25.8896 H   0  0  0  0  0  0  0  0  0  0  0  0
   18.2676   18.8045   24.8228 C   0  0  0  0  0  0  0  0  0  0  0  0
   17.9159   18.5728   23.8117 H   0  0  0  0  0  0  0  0  0  0  0  0
   17.6485   19.6182   25.2204 H   0  0  0  0  0  0  0  0  0  0  0  0
   18.0952   17.9207   25.4490 H   0  0  0  0  0  0  0  0  0  0  0  0
   20.6333   18.0775   24.3544 N   0  3  0  0  0  0  0  0  0  0  0  0
   21.6243   18.2929   24.4966 H   0  0  0  0  0  0  0  0  0  0  0  0
   20.4361   17.2028   24.8492 H   0  0  0  0  0  0  0  0  0  0  0  0
   20.4946   17.9141   23.3539 H   0  0  0  0  0  0  0  0  0  0  0  0
  1  2  1  0  0  0  0
  1  3  1  0  0  0  0
  1  4  1  0  0  0  0
  1  5  1  0  0  0  0
  5  6  1  0  0  0  0
  5  7  1  0  0  0  0
  5  8  1  0  0  0  0
  8  9  1  0  0  0  0
  8 10  1  0  0  0  0
  8 11  1  0  0  0  0
 11 12  1  0  0  0  0
 11 13  1  0  0  0  0
 11 14  1  0  0  0  0
 14 15  1  0  0  0  0
 14 16  1  0  0  0  0
 14 17  1  0  0  0  0
 17 18  1  0  0  0  0
 17 19  1  0  0  0  0
 19 20  1  0  0  0  0
 19 21  1  0  0  0  0
 19 22  1  0  0  0  0
 17 23  1  0  0  0  0
 23 24  1  0  0  0  0
 23 25  1  0  0  0  0
 23 26  1  0  0  0  0
M  END
> <VM2 Rank>
88

> <Conf_Id>
217

> <Probability>
0.00

> <Sum Probability>
100.00

> <Delta G>
7.753

> <G>
31.465

> <E>
-2.236

> <-TS>
33.701

> <U+W>
-23.698

> <U>
29.525

> <W>
-53.223

> <W(PB)>
-55.434

> <W(SA)>
2.211

> <Valence>
7.633

> <Coulomb>
21.336

> <VdW>
0.556

> <VdW6>
-10.325

> <VdW12>
10.881

> <Bond>
0.326

> <Angle>
2.670

> <Pdih>
4.636

> <Idih>
0.000

> <Tether>
0.000

$$$$
VeraChem MOL file


 26 25  0  0  0  0  0  0  0  0999 V2000     
   18.6745   19.1194   20.5938 C   0  0  0  0  0  0  0  0  0  0  0  0
   18.3123   19.3715   19.5888 H   0  0  0  0  0  0  0  0  0  0  0  0
   18.1086   18.2452   20.9397 H   0  0  0  0  0  0  0  0  0  0  0  0
   18.4372   19.9657   21.2450 H   0  0  0  0  0  0  0  0  0  0  0  0
   20.1901   18.8224   20.5572 C   0  0  0  0  0  0  0  0  0  0  0  0
   20.7398   19.7076   20.2085 H   0  0  0  0  0  0  0  0  0  0  0  0
   20.3579   18.0472   19.7963 H   0  0  0  0  0  0  0  0  0  0  0  0
   20.7821   18.3162   21.8990 C   0  0  0  0  0  0  0  0  0  0  0  0
   20.0896   17.6344   22.4037 H   0  0  0  0  0  0  0  0  0  0  0  0
   21.6523   17.6941   21.6473 H   0  0  0  0  0  0  0  0  0  0  0  0
   21.2955   19.4246   22.8572 C   0  0  0  0  0  0  0  0  0  0  0  0
   21.9497   20.0949   22.2831 H   0  0  0  0  0  0  0  0  0  0  0  0
   21.9579   18.9622   23.6006 H   0  0  0  0  0  0  0  0  0  0  0  0
   20.2399   20.2976   23.5973 C   0  0  0  0  0  0  0  0  0  0  0  0
   20.7982   21.0839   24.1220 H   0  0  0  0  0  0  0  0  0  0  0  0
   19.6154   20.8401   22.8798 H   0  0  0  0  0  0  0  0  0  0  0  0
   19.3547   19.6041   24.6674 C   0  0  1  0  0  0  0  0  0  0  0  0
   19.0520   20.3857   25.3710 H   0  0  0  0  0  0  0  0  0  0  0  0
   18.0538   19.0176   24.0932 C   0  0  0  0  0  0  0  0  0  0  0  0
   17.4032   18.6701   24.9051 H   0  0  0  0  0  0  0  0  0  0  0  0
   18.2377   18.1664   23.4321 H   0  0  0  0  0  0  0  0  0  0  0  0
   17.4974   19.7779   23.5321 H   0  0  0  0  0  0  0  0  0  0  0  0
   20.0974   18.5862   25.4889 N   0  3  0  0  0  0  0  0  0  0  0  0
   20.4234   17.8111   24.9063 H   0  0  0  0  0  0  0  0  0  0  0  0
   20.9173   18.9982   25.9429 H   0  0  0  0  0  0  0  0  0  0  0  0
   19.5041   18.1929   26.2248 H   0  0  0  0  0  0  0  0  0  0  0  0
  1  2  1  0  0  0  0
  1  3  1  0  0  0  0
  1  4  1  0  0  0  0
  1  5  1  0  0  0  0
  5  6  1  0  0  0  0
  5  7  1  0  0  0  0
  5  8  1  0  0  0  0
  8  9  1  0  0  0  0
  8 10  1  0  0  0  0
  8 11  1  0  0  0  0
 11 12  1  0  0  0  0
 11 13  1  0  0  0  0
 11 14  1  0  0  0  0
 14 15  1  0  0  0  0
 14 16  1  0  0  0  0
 14 17  1  0  0  0  0
 17 18  1  0  0  0  0
 17 19  1  0  0  0  0
 19 20  1  0  0  0  0
 19 21  1  0  0  0  0
 19 22  1  0  0  0  0
 17 23  1  0  0  0  0
 23 24  1  0  0  0  0
 23 25  1  0  0  0  0
 23 26  1  0  0  0  0
M  END
> <VM2 Rank>
89

> <Conf_Id>
1107

> <Probability>
0.00

> <Sum Probability>
100.00

> <Delta G>
8.109

> <G>
31.821

> <E>
-1.879

> <-TS>
33.700

> <U+W>
-23.341

> <U>
31.153

> <W>
-54.493

> <W(PB)>
-56.633

> <W(SA)>
2.139

> <Valence>
9.824

> <Coulomb>
20.755

> <VdW>
0.573

> <VdW6>
-10.636

> <VdW12>
11.209

> <Bond>
0.409

> <Angle>
4.447

> <Pdih>
4.968

> <Idih>
0.000

> <Tether>
0.000

$$$$
VeraChem MOL file


 26 25  0  0  0  0  0  0  0  0999 V2000     
   21.4066   18.2221   21.1007 C   0  0  0  0  0  0  0  0  0  0  0  0
   21.2509   17.2249   21.5311 H   0  0  0  0  0  0  0  0  0  0  0  0
   22.1245   18.1156   20.2771 H   0  0  0  0  0  0  0  0  0  0  0  0
   21.8754   18.8622   21.8539 H   0  0  0  0  0  0  0  0  0  0  0  0
   20.0809   18.8175   20.5757 C   0  0  0  0  0  0  0  0  0  0  0  0
   19.7436   18.1894   19.7392 H   0  0  0  0  0  0  0  0  0  0  0  0
   20.2583   19.8141   20.1482 H   0  0  0  0  0  0  0  0  0  0  0  0
   18.9374   18.8793   21.6224 C   0  0  0  0  0  0  0  0  0  0  0  0
   17.9921   18.8254   21.0646 H   0  0  0  0  0  0  0  0  0  0  0  0
   18.9352   17.9874   22.2585 H   0  0  0  0  0  0  0  0  0  0  0  0
   18.8776   20.1830   22.4643 C   0  0  0  0  0  0  0  0  0  0  0  0
   17.8961   20.2355   22.9536 H   0  0  0  0  0  0  0  0  0  0  0  0
   18.8917   21.0384   21.7751 H   0  0  0  0  0  0  0  0  0  0  0  0
   19.9847   20.4044   23.5351 C   0  0  0  0  0  0  0  0  0  0  0  0
   20.9662   20.4743   23.0542 H   0  0  0  0  0  0  0  0  0  0  0  0
   19.8184   21.3986   23.9702 H   0  0  0  0  0  0  0  0  0  0  0  0
   20.0489   19.4008   24.7161 C   0  0  1  0  0  0  0  0  0  0  0  0
   20.7178   19.8368   25.4646 H   0  0  0  0  0  0  0  0  0  0  0  0
   18.6809   19.1972   25.3903 C   0  0  0  0  0  0  0  0  0  0  0  0
   18.2342   20.1612   25.6638 H   0  0  0  0  0  0  0  0  0  0  0  0
   18.7897   18.6085   26.3094 H   0  0  0  0  0  0  0  0  0  0  0  0
   17.9816   18.6663   24.7333 H   0  0  0  0  0  0  0  0  0  0  0  0
   20.6710   18.0836   24.3494 N   0  3  0  0  0  0  0  0  0  0  0  0
   21.6262   18.2062   24.0028 H   0  0  0  0  0  0  0  0  0  0  0  0
   20.7146   17.4536   25.1556 H   0  0  0  0  0  0  0  0  0  0  0  0
   20.1343   17.6163   23.6157 H   0  0  0  0  0  0  0  0  0  0  0  0
  1  2  1  0  0  0  0
  1  3  1  0  0  0  0
  1  4  1  0  0  0  0
  1  5  1  0  0  0  0
  5  6  1  0  0  0  0
  5  7  1  0  0  0  0
  5  8  1  0  0  0  0
  8  9  1  0  0  0  0
  8 10  1  0  0  0  0
  8 11  1  0  0  0  0
 11 12  1  0  0  0  0
 11 13  1  0  0  0  0
 11 14  1  0  0  0  0
 14 15  1  0  0  0  0
 14 16  1  0  0  0  0
 14 17  1  0  0  0  0
 17 18  1  0  0  0  0
 17 19  1  0  0  0  0
 19 20  1  0  0  0  0
 19 21  1  0  0  0  0
 19 22  1  0  0  0  0
 17 23  1  0  0  0  0
 23 24  1  0  0  0  0
 23 25  1  0  0  0  0
 23 26  1  0  0  0  0
M  END
> <VM2 Rank>
90

> <Conf_Id>
736

> <Probability>
0.00

> <Sum Probability>
100.00

> <Delta G>
8.469

> <G>
32.181

> <E>
-1.491

> <-TS>
33.672

> <U+W>
-22.953

> <U>
30.633

> <W>
-53.587

> <W(PB)>
-55.728

> <W(SA)>
2.141

> <Valence>
8.256

> <Coulomb>
21.994

> <VdW>
0.384

> <VdW6>
-10.991

> <VdW12>
11.375

> <Bond>
0.404

> <Angle>
4.023

> <Pdih>
3.829

> <Idih>
0.000

> <Tether>
0.000

$$$$
