@<TRIPOS>MOLECULE
guest-s13_vm2.mol2 : vm2 ligand conformer 1
          26          25           1
SMALL
USER_CHARGES
 
@<TRIPOS>ATOM
       1    C1      20.241435   18.656177   18.805977 C.3        1 MOL1        -0.2398
       2    H1      19.604248   19.496788   18.501659 H          1 MOL1         0.0972
       3    H2      21.055731   18.568760   18.075000 H          1 MOL1         0.0972
       4    H3      19.642765   17.737354   18.754996 H          1 MOL1         0.0972
       5    C2      20.805059   18.873015   20.226345 C.3        1 MOL1        -0.1383
       6    H4      21.426119   19.779709   20.237526 H          1 MOL1         0.0961
       7    H5      21.464459   18.033811   20.488734 H          1 MOL1         0.0961
       8    C3      19.678466   18.999408   21.275706 C.3        1 MOL1        -0.1407
       9    H6      19.020548   19.837409   21.006703 H          1 MOL1         0.0961
      10    H7      19.059450   18.091632   21.259491 H          1 MOL1         0.0961
      11    C4      20.238914   19.217397   22.699420 C.3        1 MOL1        -0.1407
      12    H8      20.854854   20.127395   22.714975 H          1 MOL1         0.0961
      13    H9      20.900047   18.379469   22.957587 H          1 MOL1         0.0961
      14    C5      19.107589   19.342280   23.748810 C.3        1 MOL1        -0.1472
      15    H10     18.427912   20.149037   23.443371 H          1 MOL1         0.0961
      16    H11     18.511899   18.419835   23.764565 H          1 MOL1         0.0961
      17    C6      19.633140   19.645572   25.168773 C.3        1 MOL1         0.1190
      18    H12     20.241878   20.553862   25.122252 H          1 MOL1         0.0923
      19    C7      18.460542   19.899582   26.129608 C.3        1 MOL1        -0.2463
      20    H13     17.844663   20.737681   25.780300 H          1 MOL1         0.0972
      21    H14     18.827572   20.152016   27.132077 H          1 MOL1         0.0972
      22    H15     17.817260   19.014703   26.213806 H          1 MOL1         0.0972
      23    N1      20.522855   18.554569   25.699361 N.4        1 MOL1        -0.5974
      24    H16     20.021677   17.665086   25.769650 H          1 MOL1         0.3625
      25    H17     21.333696   18.404901   25.093119 H          1 MOL1         0.3625
      26    H18     20.876880   18.781406   26.632976 H          1 MOL1         0.3625
@<TRIPOS>BOND
    1     1     2    1
    2     1     3    1
    3     1     4    1
    4     1     5    1
    5     5     6    1
    6     5     7    1
    7     5     8    1
    8     8     9    1
    9     8    10    1
   10     8    11    1
   11    11    12    1
   12    11    13    1
   13    11    14    1
   14    14    15    1
   15    14    16    1
   16    14    17    1
   17    17    18    1
   18    17    19    1
   19    19    20    1
   20    19    21    1
   21    19    22    1
   22    17    23    1
   23    23    24    1
   24    23    25    1
   25    23    26    1
@<TRIPOS>SUBSTRUCTURE
       1 MOL1            1 RESIDUE      1      MOL     
@<SCITEGIC>MOL_PROPERTY
VM2 Rank
SciTegic.value.IntegerValue
1

@<SCITEGIC>MOL_PROPERTY
Conf_Id
SciTegic.value.IntegerValue
613

@<SCITEGIC>MOL_PROPERTY
Probability
SciTegic.value.DoubleValue
16.98

@<SCITEGIC>MOL_PROPERTY
Sum Probability
SciTegic.value.DoubleValue
16.98

@<SCITEGIC>MOL_PROPERTY
Delta G
SciTegic.value.DoubleValue
0.000

@<SCITEGIC>MOL_PROPERTY
G
SciTegic.value.DoubleValue
23.712

@<SCITEGIC>MOL_PROPERTY
E
SciTegic.value.DoubleValue
-8.840

@<SCITEGIC>MOL_PROPERTY
-TS
SciTegic.value.DoubleValue
32.553

@<SCITEGIC>MOL_PROPERTY
U+W
SciTegic.value.DoubleValue
-30.302

@<SCITEGIC>MOL_PROPERTY
U
SciTegic.value.DoubleValue
23.517

@<SCITEGIC>MOL_PROPERTY
W
SciTegic.value.DoubleValue
-53.817

@<SCITEGIC>MOL_PROPERTY
W(PB)
SciTegic.value.DoubleValue
-56.163

@<SCITEGIC>MOL_PROPERTY
W(SA)
SciTegic.value.DoubleValue
2.346

@<SCITEGIC>MOL_PROPERTY
Valence
SciTegic.value.DoubleValue
2.737

@<SCITEGIC>MOL_PROPERTY
Coulomb
SciTegic.value.DoubleValue
19.862

@<SCITEGIC>MOL_PROPERTY
VdW
SciTegic.value.DoubleValue
0.919

@<SCITEGIC>MOL_PROPERTY
VdW6
SciTegic.value.DoubleValue
-6.793

@<SCITEGIC>MOL_PROPERTY
VdW12
SciTegic.value.DoubleValue
7.712

@<SCITEGIC>MOL_PROPERTY
Bond
SciTegic.value.DoubleValue
0.171

@<SCITEGIC>MOL_PROPERTY
Angle
SciTegic.value.DoubleValue
0.873

@<SCITEGIC>MOL_PROPERTY
Pdih
SciTegic.value.DoubleValue
1.693

@<SCITEGIC>MOL_PROPERTY
Idih
SciTegic.value.DoubleValue
0.000

@<SCITEGIC>MOL_PROPERTY
Tether
SciTegic.value.DoubleValue
0.000

@<TRIPOS>MOLECULE
guest-s13_vm2.mol2 : vm2 ligand conformer 2
          26          25           1
SMALL
USER_CHARGES
 
@<TRIPOS>ATOM
       1    C1      20.265077   18.643758   18.802580 C.3        1 MOL1        -0.2398
       2    H1      21.174217   18.029129   18.833177 H          1 MOL1         0.0972
       3    H2      19.402842   17.973551   18.690270 H          1 MOL1         0.0972
       4    H3      20.317316   19.278325   17.908351 H          1 MOL1         0.0972
       5    C2      20.135273   19.506155   20.075979 C.3        1 MOL1        -0.1383
       6    H4      19.236233   20.133855   20.000853 H          1 MOL1         0.0961
       7    H5      20.993930   20.188917   20.142885 H          1 MOL1         0.0961
       8    C3      20.059695   18.636605   21.350563 C.3        1 MOL1        -0.1407
       9    H6      19.201025   17.954722   21.278298 H          1 MOL1         0.0961
      10    H7      20.959049   18.008920   21.418610 H          1 MOL1         0.0961
      11    C4      19.930205   19.496827   22.628139 C.3        1 MOL1        -0.1407
      12    H8      19.034019   20.125598   22.545491 H          1 MOL1         0.0961
      13    H9      20.791720   20.174938   22.702222 H          1 MOL1         0.0961
      14    C5      19.850003   18.622194   23.903597 C.3        1 MOL1        -0.1472
      15    H10     18.953416   17.989408   23.863060 H          1 MOL1         0.0961
      16    H11     20.711172   17.941027   23.914725 H          1 MOL1         0.0961
      17    C6      19.853513   19.435473   25.218319 C.3        1 MOL1         0.1190
      18    H12     20.732626   20.087281   25.216130 H          1 MOL1         0.0923
      19    C7      18.596884   20.312963   25.361698 C.3        1 MOL1        -0.2463
      20    H13     17.682577   19.709191   25.305269 H          1 MOL1         0.0972
      21    H14     18.552851   21.078164   24.578208 H          1 MOL1         0.0972
      22    H15     18.599459   20.836635   26.325592 H          1 MOL1         0.0972
      23    N1      19.997350   18.534023   26.413125 N.4        1 MOL1        -0.5974
      24    H16     19.207662   17.887729   26.491934 H          1 MOL1         0.3625
      25    H17     20.851289   17.971266   26.360790 H          1 MOL1         0.3625
      26    H18     20.040318   19.070978   27.283933 H          1 MOL1         0.3625
@<TRIPOS>BOND
    1     1     2    1
    2     1     3    1
    3     1     4    1
    4     1     5    1
    5     5     6    1
    6     5     7    1
    7     5     8    1
    8     8     9    1
    9     8    10    1
   10     8    11    1
   11    11    12    1
   12    11    13    1
   13    11    14    1
   14    14    15    1
   15    14    16    1
   16    14    17    1
   17    17    18    1
   18    17    19    1
   19    19    20    1
   20    19    21    1
   21    19    22    1
   22    17    23    1
   23    23    24    1
   24    23    25    1
   25    23    26    1
@<TRIPOS>SUBSTRUCTURE
       1 MOL1            1 RESIDUE      1      MOL     
@<SCITEGIC>MOL_PROPERTY
VM2 Rank
SciTegic.value.IntegerValue
2

@<SCITEGIC>MOL_PROPERTY
Conf_Id
SciTegic.value.IntegerValue
969

@<SCITEGIC>MOL_PROPERTY
Probability
SciTegic.value.DoubleValue
7.72

@<SCITEGIC>MOL_PROPERTY
Sum Probability
SciTegic.value.DoubleValue
24.69

@<SCITEGIC>MOL_PROPERTY
Delta G
SciTegic.value.DoubleValue
0.470

@<SCITEGIC>MOL_PROPERTY
G
SciTegic.value.DoubleValue
24.182

@<SCITEGIC>MOL_PROPERTY
E
SciTegic.value.DoubleValue
-8.384

@<SCITEGIC>MOL_PROPERTY
-TS
SciTegic.value.DoubleValue
32.567

@<SCITEGIC>MOL_PROPERTY
U+W
SciTegic.value.DoubleValue
-29.846

@<SCITEGIC>MOL_PROPERTY
U
SciTegic.value.DoubleValue
23.817

@<SCITEGIC>MOL_PROPERTY
W
SciTegic.value.DoubleValue
-53.664

@<SCITEGIC>MOL_PROPERTY
W(PB)
SciTegic.value.DoubleValue
-56.022

@<SCITEGIC>MOL_PROPERTY
W(SA)
SciTegic.value.DoubleValue
2.358

@<SCITEGIC>MOL_PROPERTY
Valence
SciTegic.value.DoubleValue
3.277

@<SCITEGIC>MOL_PROPERTY
Coulomb
SciTegic.value.DoubleValue
19.492

@<SCITEGIC>MOL_PROPERTY
VdW
SciTegic.value.DoubleValue
1.049

@<SCITEGIC>MOL_PROPERTY
VdW6
SciTegic.value.DoubleValue
-6.949

@<SCITEGIC>MOL_PROPERTY
VdW12
SciTegic.value.DoubleValue
7.998

@<SCITEGIC>MOL_PROPERTY
Bond
SciTegic.value.DoubleValue
0.183

@<SCITEGIC>MOL_PROPERTY
Angle
SciTegic.value.DoubleValue
1.152

@<SCITEGIC>MOL_PROPERTY
Pdih
SciTegic.value.DoubleValue
1.942

@<SCITEGIC>MOL_PROPERTY
Idih
SciTegic.value.DoubleValue
0.000

@<SCITEGIC>MOL_PROPERTY
Tether
SciTegic.value.DoubleValue
0.000

@<TRIPOS>MOLECULE
guest-s13_vm2.mol2 : vm2 ligand conformer 3
          26          25           1
SMALL
USER_CHARGES
 
@<TRIPOS>ATOM
       1    C1      20.361257   18.766430   18.898864 C.3        1 MOL1        -0.2398
       2    H1      20.329005   17.928905   18.189953 H          1 MOL1         0.0972
       3    H2      19.620726   19.509842   18.576080 H          1 MOL1         0.0972
       4    H3      21.356692   19.224818   18.833836 H          1 MOL1         0.0972
       5    C2      20.068078   18.277918   20.333266 C.3        1 MOL1        -0.1383
       6    H4      20.803986   17.511713   20.614834 H          1 MOL1         0.0961
       7    H5      19.081381   17.794508   20.359043 H          1 MOL1         0.0961
       8    C3      20.107353   19.438505   21.352053 C.3        1 MOL1        -0.1407
       9    H6      21.094646   19.919844   21.320203 H          1 MOL1         0.0961
      10    H7      19.371889   20.202695   21.064714 H          1 MOL1         0.0961
      11    C4      19.814138   18.953487   22.789901 C.3        1 MOL1        -0.1407
      12    H8      20.551281   18.189218   23.069363 H          1 MOL1         0.0961
      13    H9      18.828420   18.470365   22.809718 H          1 MOL1         0.0961
      14    C5      19.852252   20.123867   23.806971 C.3        1 MOL1        -0.1472
      15    H10     20.825506   20.627675   23.740508 H          1 MOL1         0.0961
      16    H11     19.103519   20.875427   23.523527 H          1 MOL1         0.0961
      17    C6      19.613337   19.715669   25.280027 C.3        1 MOL1         0.1190
      18    H12     19.696676   20.623210   25.886056 H          1 MOL1         0.0923
      19    C7      18.203989   19.138327   25.499429 C.3        1 MOL1        -0.2463
      20    H13     18.078423   18.171872   24.997077 H          1 MOL1         0.0972
      21    H14     17.437591   19.825649   25.120248 H          1 MOL1         0.0972
      22    H15     18.014234   18.986537   26.569070 H          1 MOL1         0.0972
      23    N1      20.667596   18.773796   25.793489 N.4        1 MOL1        -0.5974
      24    H16     20.650860   17.885221   25.287124 H          1 MOL1         0.3625
      25    H17     21.606521   19.169453   25.691778 H          1 MOL1         0.3625
      26    H18     20.530375   18.563977   26.786247 H          1 MOL1         0.3625
@<TRIPOS>BOND
    1     1     2    1
    2     1     3    1
    3     1     4    1
    4     1     5    1
    5     5     6    1
    6     5     7    1
    7     5     8    1
    8     8     9    1
    9     8    10    1
   10     8    11    1
   11    11    12    1
   12    11    13    1
   13    11    14    1
   14    14    15    1
   15    14    16    1
   16    14    17    1
   17    17    18    1
   18    17    19    1
   19    19    20    1
   20    19    21    1
   21    19    22    1
   22    17    23    1
   23    23    24    1
   24    23    25    1
   25    23    26    1
@<TRIPOS>SUBSTRUCTURE
       1 MOL1            1 RESIDUE      1      MOL     
@<SCITEGIC>MOL_PROPERTY
VM2 Rank
SciTegic.value.IntegerValue
3

@<SCITEGIC>MOL_PROPERTY
Conf_Id
SciTegic.value.IntegerValue
995

@<SCITEGIC>MOL_PROPERTY
Probability
SciTegic.value.DoubleValue
7.21

@<SCITEGIC>MOL_PROPERTY
Sum Probability
SciTegic.value.DoubleValue
31.91

@<SCITEGIC>MOL_PROPERTY
Delta G
SciTegic.value.DoubleValue
0.511

@<SCITEGIC>MOL_PROPERTY
G
SciTegic.value.DoubleValue
24.223

@<SCITEGIC>MOL_PROPERTY
E
SciTegic.value.DoubleValue
-8.475

@<SCITEGIC>MOL_PROPERTY
-TS
SciTegic.value.DoubleValue
32.698

@<SCITEGIC>MOL_PROPERTY
U+W
SciTegic.value.DoubleValue
-29.937

@<SCITEGIC>MOL_PROPERTY
U
SciTegic.value.DoubleValue
24.060

@<SCITEGIC>MOL_PROPERTY
W
SciTegic.value.DoubleValue
-53.997

@<SCITEGIC>MOL_PROPERTY
W(PB)
SciTegic.value.DoubleValue
-56.329

@<SCITEGIC>MOL_PROPERTY
W(SA)
SciTegic.value.DoubleValue
2.332

@<SCITEGIC>MOL_PROPERTY
Valence
SciTegic.value.DoubleValue
3.249

@<SCITEGIC>MOL_PROPERTY
Coulomb
SciTegic.value.DoubleValue
19.781

@<SCITEGIC>MOL_PROPERTY
VdW
SciTegic.value.DoubleValue
1.030

@<SCITEGIC>MOL_PROPERTY
VdW6
SciTegic.value.DoubleValue
-7.421

@<SCITEGIC>MOL_PROPERTY
VdW12
SciTegic.value.DoubleValue
8.451

@<SCITEGIC>MOL_PROPERTY
Bond
SciTegic.value.DoubleValue
0.207

@<SCITEGIC>MOL_PROPERTY
Angle
SciTegic.value.DoubleValue
1.205

@<SCITEGIC>MOL_PROPERTY
Pdih
SciTegic.value.DoubleValue
1.837

@<SCITEGIC>MOL_PROPERTY
Idih
SciTegic.value.DoubleValue
0.000

@<SCITEGIC>MOL_PROPERTY
Tether
SciTegic.value.DoubleValue
0.000

@<TRIPOS>MOLECULE
guest-s13_vm2.mol2 : vm2 ligand conformer 4
          26          25           1
SMALL
USER_CHARGES
 
@<TRIPOS>ATOM
       1    C1      21.048319   19.537180   19.591041 C.3        1 MOL1        -0.2398
       2    H1      21.644079   19.290982   18.702564 H          1 MOL1         0.0972
       3    H2      20.376746   20.364143   19.326193 H          1 MOL1         0.0972
       4    H3      21.741204   19.890563   20.364648 H          1 MOL1         0.0972
       5    C2      20.249126   18.302222   20.065317 C.3        1 MOL1        -0.1383
       6    H4      20.943727   17.500480   20.352522 H          1 MOL1         0.0961
       7    H5      19.663800   17.913489   19.220282 H          1 MOL1         0.0961
       8    C3      19.285988   18.605899   21.238278 C.3        1 MOL1        -0.1407
       9    H6      18.578722   19.391140   20.937509 H          1 MOL1         0.0961
      10    H7      18.684662   17.707943   21.436951 H          1 MOL1         0.0961
      11    C4      20.011667   19.026041   22.539006 C.3        1 MOL1        -0.1407
      12    H8      20.556760   19.965068   22.375309 H          1 MOL1         0.0961
      13    H9      20.757141   18.262415   22.797352 H          1 MOL1         0.0961
      14    C5      19.018982   19.215516   23.711800 C.3        1 MOL1        -0.1472
      15    H10     18.249278   19.938904   23.411161 H          1 MOL1         0.0961
      16    H11     18.498446   18.270157   23.915025 H          1 MOL1         0.0961
      17    C6      19.700043   19.720891   25.002212 C.3        1 MOL1         0.1190
      18    H12     20.230012   20.649574   24.768992 H          1 MOL1         0.0923
      19    C7      18.646067   20.024454   26.079088 C.3        1 MOL1        -0.2463
      20    H13     19.120177   20.419032   26.986226 H          1 MOL1         0.0972
      21    H14     18.085173   19.121615   26.351468 H          1 MOL1         0.0972
      22    H15     17.930874   20.776714   25.723652 H          1 MOL1         0.0972
      23    N1      20.727807   18.755797   25.527256 N.4        1 MOL1        -0.5974
      24    H16     21.182477   19.115787   26.371114 H          1 MOL1         0.3625
      25    H17     20.305731   17.854953   25.767313 H          1 MOL1         0.3625
      26    H18     21.461791   18.578425   24.836455 H          1 MOL1         0.3625
@<TRIPOS>BOND
    1     1     2    1
    2     1     3    1
    3     1     4    1
    4     1     5    1
    5     5     6    1
    6     5     7    1
    7     5     8    1
    8     8     9    1
    9     8    10    1
   10     8    11    1
   11    11    12    1
   12    11    13    1
   13    11    14    1
   14    14    15    1
   15    14    16    1
   16    14    17    1
   17    17    18    1
   18    17    19    1
   19    19    20    1
   20    19    21    1
   21    19    22    1
   22    17    23    1
   23    23    24    1
   24    23    25    1
   25    23    26    1
@<TRIPOS>SUBSTRUCTURE
       1 MOL1            1 RESIDUE      1      MOL     
@<SCITEGIC>MOL_PROPERTY
VM2 Rank
SciTegic.value.IntegerValue
4

@<SCITEGIC>MOL_PROPERTY
Conf_Id
SciTegic.value.IntegerValue
1012

@<SCITEGIC>MOL_PROPERTY
Probability
SciTegic.value.DoubleValue
6.30

@<SCITEGIC>MOL_PROPERTY
Sum Probability
SciTegic.value.DoubleValue
38.21

@<SCITEGIC>MOL_PROPERTY
Delta G
SciTegic.value.DoubleValue
0.591

@<SCITEGIC>MOL_PROPERTY
G
SciTegic.value.DoubleValue
24.303

@<SCITEGIC>MOL_PROPERTY
E
SciTegic.value.DoubleValue
-8.362

@<SCITEGIC>MOL_PROPERTY
-TS
SciTegic.value.DoubleValue
32.665

@<SCITEGIC>MOL_PROPERTY
U+W
SciTegic.value.DoubleValue
-29.824

@<SCITEGIC>MOL_PROPERTY
U
SciTegic.value.DoubleValue
24.148

@<SCITEGIC>MOL_PROPERTY
W
SciTegic.value.DoubleValue
-53.972

@<SCITEGIC>MOL_PROPERTY
W(PB)
SciTegic.value.DoubleValue
-56.283

@<SCITEGIC>MOL_PROPERTY
W(SA)
SciTegic.value.DoubleValue
2.311

@<SCITEGIC>MOL_PROPERTY
Valence
SciTegic.value.DoubleValue
3.242

@<SCITEGIC>MOL_PROPERTY
Coulomb
SciTegic.value.DoubleValue
19.863

@<SCITEGIC>MOL_PROPERTY
VdW
SciTegic.value.DoubleValue
1.043

@<SCITEGIC>MOL_PROPERTY
VdW6
SciTegic.value.DoubleValue
-7.422

@<SCITEGIC>MOL_PROPERTY
VdW12
SciTegic.value.DoubleValue
8.465

@<SCITEGIC>MOL_PROPERTY
Bond
SciTegic.value.DoubleValue
0.206

@<SCITEGIC>MOL_PROPERTY
Angle
SciTegic.value.DoubleValue
1.112

@<SCITEGIC>MOL_PROPERTY
Pdih
SciTegic.value.DoubleValue
1.924

@<SCITEGIC>MOL_PROPERTY
Idih
SciTegic.value.DoubleValue
0.000

@<SCITEGIC>MOL_PROPERTY
Tether
SciTegic.value.DoubleValue
0.000

@<TRIPOS>MOLECULE
guest-s13_vm2.mol2 : vm2 ligand conformer 5
          26          25           1
SMALL
USER_CHARGES
 
@<TRIPOS>ATOM
       1    C1      21.069787   18.017627   19.828622 C.3        1 MOL1        -0.2398
       2    H1      21.658012   18.007552   18.901892 H          1 MOL1         0.0972
       3    H2      21.771635   17.912210   20.665066 H          1 MOL1         0.0972
       4    H3      20.411770   17.139032   19.817936 H          1 MOL1         0.0972
       5    C2      20.250961   19.324201   19.934848 C.3        1 MOL1        -0.1383
       6    H4      19.658123   19.445622   19.017456 H          1 MOL1         0.0961
       7    H5      20.932566   20.185278   19.976335 H          1 MOL1         0.0961
       8    C3      19.294303   19.354495   21.151270 C.3        1 MOL1        -0.1407
       9    H6      18.676336   20.260634   21.085235 H          1 MOL1         0.0961
      10    H7      18.601684   18.503406   21.094363 H          1 MOL1         0.0961
      11    C4      20.028189   19.340196   22.513772 C.3        1 MOL1        -0.1407
      12    H8      20.754259   20.164306   22.547082 H          1 MOL1         0.0961
      13    H9      20.596591   18.407199   22.613647 H          1 MOL1         0.0961
      14    C5      19.039554   19.475606   23.697542 C.3        1 MOL1        -0.1472
      15    H10     18.443349   20.387537   23.559800 H          1 MOL1         0.0961
      16    H11     18.332964   18.634983   23.689122 H          1 MOL1         0.0961
      17    C6      19.746317   19.546694   25.068703 C.3        1 MOL1         0.1190
      18    H12     20.461682   20.374529   25.043087 H          1 MOL1         0.0923
      19    C7      18.724607   19.826558   26.182485 C.3        1 MOL1        -0.2463
      20    H13     17.982136   19.021661   26.251690 H          1 MOL1         0.0972
      21    H14     18.192063   20.767441   25.995762 H          1 MOL1         0.0972
      22    H15     19.224575   19.914977   27.154898 H          1 MOL1         0.0972
      23    N1      20.534282   18.302623   25.376758 N.4        1 MOL1        -0.5974
      24    H16     21.250712   18.128118   24.667096 H          1 MOL1         0.3625
      25    H17     21.010257   18.375547   26.280397 H          1 MOL1         0.3625
      26    H18     19.929804   17.477712   25.414701 H          1 MOL1         0.3625
@<TRIPOS>BOND
    1     1     2    1
    2     1     3    1
    3     1     4    1
    4     1     5    1
    5     5     6    1
    6     5     7    1
    7     5     8    1
    8     8     9    1
    9     8    10    1
   10     8    11    1
   11    11    12    1
   12    11    13    1
   13    11    14    1
   14    14    15    1
   15    14    16    1
   16    14    17    1
   17    17    18    1
   18    17    19    1
   19    19    20    1
   20    19    21    1
   21    19    22    1
   22    17    23    1
   23    23    24    1
   24    23    25    1
   25    23    26    1
@<TRIPOS>SUBSTRUCTURE
       1 MOL1            1 RESIDUE      1      MOL     
@<SCITEGIC>MOL_PROPERTY
VM2 Rank
SciTegic.value.IntegerValue
5

@<SCITEGIC>MOL_PROPERTY
Conf_Id
SciTegic.value.IntegerValue
1081

@<SCITEGIC>MOL_PROPERTY
Probability
SciTegic.value.DoubleValue
6.05

@<SCITEGIC>MOL_PROPERTY
Sum Probability
SciTegic.value.DoubleValue
44.25

@<SCITEGIC>MOL_PROPERTY
Delta G
SciTegic.value.DoubleValue
0.616

@<SCITEGIC>MOL_PROPERTY
G
SciTegic.value.DoubleValue
24.328

@<SCITEGIC>MOL_PROPERTY
E
SciTegic.value.DoubleValue
-8.330

@<SCITEGIC>MOL_PROPERTY
-TS
SciTegic.value.DoubleValue
32.658

@<SCITEGIC>MOL_PROPERTY
U+W
SciTegic.value.DoubleValue
-29.792

@<SCITEGIC>MOL_PROPERTY
U
SciTegic.value.DoubleValue
24.259

@<SCITEGIC>MOL_PROPERTY
W
SciTegic.value.DoubleValue
-54.052

@<SCITEGIC>MOL_PROPERTY
W(PB)
SciTegic.value.DoubleValue
-56.355

@<SCITEGIC>MOL_PROPERTY
W(SA)
SciTegic.value.DoubleValue
2.304

@<SCITEGIC>MOL_PROPERTY
Valence
SciTegic.value.DoubleValue
3.240

@<SCITEGIC>MOL_PROPERTY
Coulomb
SciTegic.value.DoubleValue
19.971

@<SCITEGIC>MOL_PROPERTY
VdW
SciTegic.value.DoubleValue
1.049

@<SCITEGIC>MOL_PROPERTY
VdW6
SciTegic.value.DoubleValue
-7.432

@<SCITEGIC>MOL_PROPERTY
VdW12
SciTegic.value.DoubleValue
8.481

@<SCITEGIC>MOL_PROPERTY
Bond
SciTegic.value.DoubleValue
0.208

@<SCITEGIC>MOL_PROPERTY
Angle
SciTegic.value.DoubleValue
1.110

@<SCITEGIC>MOL_PROPERTY
Pdih
SciTegic.value.DoubleValue
1.922

@<SCITEGIC>MOL_PROPERTY
Idih
SciTegic.value.DoubleValue
0.000

@<SCITEGIC>MOL_PROPERTY
Tether
SciTegic.value.DoubleValue
0.000

@<TRIPOS>MOLECULE
guest-s13_vm2.mol2 : vm2 ligand conformer 6
          26          25           1
SMALL
USER_CHARGES
 
@<TRIPOS>ATOM
       1    C1      20.897100   19.564229   19.339748 C.3        1 MOL1        -0.2398
       2    H1      21.680160   20.208787   19.759977 H          1 MOL1         0.0972
       3    H2      21.306049   19.076850   18.445174 H          1 MOL1         0.0972
       4    H3      20.061852   20.202673   19.023537 H          1 MOL1         0.0972
       5    C2      20.432452   18.512267   20.369118 C.3        1 MOL1        -0.1383
       6    H4      21.280823   17.868484   20.640600 H          1 MOL1         0.0961
       7    H5      19.675555   17.861799   19.908760 H          1 MOL1         0.0961
       8    C3      19.851016   19.172462   21.638797 C.3        1 MOL1        -0.1407
       9    H6      20.612098   19.827455   22.083164 H          1 MOL1         0.0961
      10    H7      19.002347   19.812962   21.361421 H          1 MOL1         0.0961
      11    C4      19.386857   18.118542   22.672671 C.3        1 MOL1        -0.1407
      12    H8      20.236661   17.490193   22.970998 H          1 MOL1         0.0961
      13    H9      18.663183   17.442886   22.196055 H          1 MOL1         0.0961
      14    C5      18.722570   18.743552   23.926255 C.3        1 MOL1        -0.1472
      15    H10     17.818535   19.283422   23.614418 H          1 MOL1         0.0961
      16    H11     18.384001   17.937839   24.591144 H          1 MOL1         0.0961
      17    C6      19.636985   19.707185   24.715736 C.3        1 MOL1         0.1190
      18    H12     19.948826   20.513552   24.045421 H          1 MOL1         0.0923
      19    C7      18.867767   20.332342   25.890317 C.3        1 MOL1        -0.2463
      20    H13     19.499503   21.047510   26.431426 H          1 MOL1         0.0972
      21    H14     18.534573   19.565117   26.600410 H          1 MOL1         0.0972
      22    H15     17.983262   20.873985   25.532557 H          1 MOL1         0.0972
      23    N1      20.893253   19.037420   25.201358 N.4        1 MOL1        -0.5974
      24    H16     21.499866   19.694594   25.699861 H          1 MOL1         0.3625
      25    H17     20.681944   18.268329   25.842530 H          1 MOL1         0.3625
      26    H18     21.433116   18.650731   24.422475 H          1 MOL1         0.3625
@<TRIPOS>BOND
    1     1     2    1
    2     1     3    1
    3     1     4    1
    4     1     5    1
    5     5     6    1
    6     5     7    1
    7     5     8    1
    8     8     9    1
    9     8    10    1
   10     8    11    1
   11    11    12    1
   12    11    13    1
   13    11    14    1
   14    14    15    1
   15    14    16    1
   16    14    17    1
   17    17    18    1
   18    17    19    1
   19    19    20    1
   20    19    21    1
   21    19    22    1
   22    17    23    1
   23    23    24    1
   24    23    25    1
   25    23    26    1
@<TRIPOS>SUBSTRUCTURE
       1 MOL1            1 RESIDUE      1      MOL     
@<SCITEGIC>MOL_PROPERTY
VM2 Rank
SciTegic.value.IntegerValue
6

@<SCITEGIC>MOL_PROPERTY
Conf_Id
SciTegic.value.IntegerValue
452

@<SCITEGIC>MOL_PROPERTY
Probability
SciTegic.value.DoubleValue
5.30

@<SCITEGIC>MOL_PROPERTY
Sum Probability
SciTegic.value.DoubleValue
49.56

@<SCITEGIC>MOL_PROPERTY
Delta G
SciTegic.value.DoubleValue
0.694

@<SCITEGIC>MOL_PROPERTY
G
SciTegic.value.DoubleValue
24.406

@<SCITEGIC>MOL_PROPERTY
E
SciTegic.value.DoubleValue
-8.339

@<SCITEGIC>MOL_PROPERTY
-TS
SciTegic.value.DoubleValue
32.745

@<SCITEGIC>MOL_PROPERTY
U+W
SciTegic.value.DoubleValue
-29.801

@<SCITEGIC>MOL_PROPERTY
U
SciTegic.value.DoubleValue
24.149

@<SCITEGIC>MOL_PROPERTY
W
SciTegic.value.DoubleValue
-53.949

@<SCITEGIC>MOL_PROPERTY
W(PB)
SciTegic.value.DoubleValue
-56.255

@<SCITEGIC>MOL_PROPERTY
W(SA)
SciTegic.value.DoubleValue
2.306

@<SCITEGIC>MOL_PROPERTY
Valence
SciTegic.value.DoubleValue
3.038

@<SCITEGIC>MOL_PROPERTY
Coulomb
SciTegic.value.DoubleValue
20.324

@<SCITEGIC>MOL_PROPERTY
VdW
SciTegic.value.DoubleValue
0.787

@<SCITEGIC>MOL_PROPERTY
VdW6
SciTegic.value.DoubleValue
-7.686

@<SCITEGIC>MOL_PROPERTY
VdW12
SciTegic.value.DoubleValue
8.473

@<SCITEGIC>MOL_PROPERTY
Bond
SciTegic.value.DoubleValue
0.201

@<SCITEGIC>MOL_PROPERTY
Angle
SciTegic.value.DoubleValue
1.089

@<SCITEGIC>MOL_PROPERTY
Pdih
SciTegic.value.DoubleValue
1.748

@<SCITEGIC>MOL_PROPERTY
Idih
SciTegic.value.DoubleValue
0.000

@<SCITEGIC>MOL_PROPERTY
Tether
SciTegic.value.DoubleValue
0.000

@<TRIPOS>MOLECULE
guest-s13_vm2.mol2 : vm2 ligand conformer 7
          26          25           1
SMALL
USER_CHARGES
 
@<TRIPOS>ATOM
       1    C1      19.926701   18.437573   19.084885 C.3        1 MOL1        -0.2398
       2    H1      20.909479   18.660507   18.649375 H          1 MOL1         0.0972
       3    H2      19.585105   17.479457   18.672137 H          1 MOL1         0.0972
       4    H3      19.223672   19.215032   18.758469 H          1 MOL1         0.0972
       5    C2      20.003764   18.371029   20.624971 C.3        1 MOL1        -0.1383
       6    H4      20.690870   17.565941   20.920645 H          1 MOL1         0.0961
       7    H5      19.013884   18.106452   21.019820 H          1 MOL1         0.0961
       8    C3      20.479465   19.712812   21.230349 C.3        1 MOL1        -0.1407
       9    H6      21.433623   19.996257   20.764910 H          1 MOL1         0.0961
      10    H7      19.764933   20.507815   20.975999 H          1 MOL1         0.0961
      11    C4      20.677500   19.663363   22.765273 C.3        1 MOL1        -0.1407
      12    H8      21.115641   20.617362   23.090150 H          1 MOL1         0.0961
      13    H9      21.412883   18.884943   23.008720 H          1 MOL1         0.0961
      14    C5      19.362253   19.420144   23.548869 C.3        1 MOL1        -0.1472
      15    H10     18.607821   20.142528   23.209892 H          1 MOL1         0.0961
      16    H11     18.966412   18.421697   23.324120 H          1 MOL1         0.0961
      17    C6      19.539689   19.565236   25.075758 C.3        1 MOL1         0.1190
      18    H12     19.949549   20.559155   25.280311 H          1 MOL1         0.0923
      19    C7      18.181356   19.448198   25.785623 C.3        1 MOL1        -0.2463
      20    H13     18.295416   19.587807   26.867689 H          1 MOL1         0.0972
      21    H14     17.726838   18.464423   25.613865 H          1 MOL1         0.0972
      22    H15     17.484714   20.214368   25.423129 H          1 MOL1         0.0972
      23    N1      20.517272   18.569645   25.638272 N.4        1 MOL1        -0.5974
      24    H16     20.201940   17.608427   25.483823 H          1 MOL1         0.3625
      25    H17     21.439448   18.665376   25.204843 H          1 MOL1         0.3625
      26    H18     20.639101   18.693940   26.647288 H          1 MOL1         0.3625
@<TRIPOS>BOND
    1     1     2    1
    2     1     3    1
    3     1     4    1
    4     1     5    1
    5     5     6    1
    6     5     7    1
    7     5     8    1
    8     8     9    1
    9     8    10    1
   10     8    11    1
   11    11    12    1
   12    11    13    1
   13    11    14    1
   14    14    15    1
   15    14    16    1
   16    14    17    1
   17    17    18    1
   18    17    19    1
   19    19    20    1
   20    19    21    1
   21    19    22    1
   22    17    23    1
   23    23    24    1
   24    23    25    1
   25    23    26    1
@<TRIPOS>SUBSTRUCTURE
       1 MOL1            1 RESIDUE      1      MOL     
@<SCITEGIC>MOL_PROPERTY
VM2 Rank
SciTegic.value.IntegerValue
7

@<SCITEGIC>MOL_PROPERTY
Conf_Id
SciTegic.value.IntegerValue
262

@<SCITEGIC>MOL_PROPERTY
Probability
SciTegic.value.DoubleValue
5.30

@<SCITEGIC>MOL_PROPERTY
Sum Probability
SciTegic.value.DoubleValue
54.85

@<SCITEGIC>MOL_PROPERTY
Delta G
SciTegic.value.DoubleValue
0.694

@<SCITEGIC>MOL_PROPERTY
G
SciTegic.value.DoubleValue
24.407

@<SCITEGIC>MOL_PROPERTY
E
SciTegic.value.DoubleValue
-8.262

@<SCITEGIC>MOL_PROPERTY
-TS
SciTegic.value.DoubleValue
32.668

@<SCITEGIC>MOL_PROPERTY
U+W
SciTegic.value.DoubleValue
-29.724

@<SCITEGIC>MOL_PROPERTY
U
SciTegic.value.DoubleValue
24.276

@<SCITEGIC>MOL_PROPERTY
W
SciTegic.value.DoubleValue
-53.999

@<SCITEGIC>MOL_PROPERTY
W(PB)
SciTegic.value.DoubleValue
-56.312

@<SCITEGIC>MOL_PROPERTY
W(SA)
SciTegic.value.DoubleValue
2.312

@<SCITEGIC>MOL_PROPERTY
Valence
SciTegic.value.DoubleValue
3.269

@<SCITEGIC>MOL_PROPERTY
Coulomb
SciTegic.value.DoubleValue
20.007

@<SCITEGIC>MOL_PROPERTY
VdW
SciTegic.value.DoubleValue
1.000

@<SCITEGIC>MOL_PROPERTY
VdW6
SciTegic.value.DoubleValue
-7.483

@<SCITEGIC>MOL_PROPERTY
VdW12
SciTegic.value.DoubleValue
8.483

@<SCITEGIC>MOL_PROPERTY
Bond
SciTegic.value.DoubleValue
0.211

@<SCITEGIC>MOL_PROPERTY
Angle
SciTegic.value.DoubleValue
1.103

@<SCITEGIC>MOL_PROPERTY
Pdih
SciTegic.value.DoubleValue
1.955

@<SCITEGIC>MOL_PROPERTY
Idih
SciTegic.value.DoubleValue
0.000

@<SCITEGIC>MOL_PROPERTY
Tether
SciTegic.value.DoubleValue
0.000

@<TRIPOS>MOLECULE
guest-s13_vm2.mol2 : vm2 ligand conformer 8
          26          25           1
SMALL
USER_CHARGES
 
@<TRIPOS>ATOM
       1    C1      19.881453   18.933038   18.977740 C.3        1 MOL1        -0.2398
       2    H1      19.237698   18.047230   18.899208 H          1 MOL1         0.0972
       3    H2      19.470462   19.707951   18.317709 H          1 MOL1         0.0972
       4    H3      20.878157   18.665755   18.603082 H          1 MOL1         0.0972
       5    C2      19.952666   19.439254   20.434110 C.3        1 MOL1        -0.1383
       6    H4      18.945714   19.734932   20.756639 H          1 MOL1         0.0961
       7    H5      20.579036   20.341282   20.475534 H          1 MOL1         0.0961
       8    C3      20.525186   18.361050   21.384608 C.3        1 MOL1        -0.1407
       9    H6      19.867477   17.480873   21.385872 H          1 MOL1         0.0961
      10    H7      21.493735   18.020508   20.992987 H          1 MOL1         0.0961
      11    C4      20.732350   18.857190   22.837033 C.3        1 MOL1        -0.1407
      12    H8      21.391996   19.736026   22.834169 H          1 MOL1         0.0961
      13    H9      21.265271   18.072668   23.390043 H          1 MOL1         0.0961
      14    C5      19.409012   19.199283   23.569235 C.3        1 MOL1        -0.1472
      15    H10     18.891160   20.000200   23.027374 H          1 MOL1         0.0961
      16    H11     18.741138   18.327756   23.556717 H          1 MOL1         0.0961
      17    C6      19.629334   19.662955   25.025891 C.3        1 MOL1         0.1190
      18    H12     20.325132   20.507624   25.015256 H          1 MOL1         0.0923
      19    C7      18.303403   20.138375   25.641462 C.3        1 MOL1        -0.2463
      20    H13     17.875154   20.962357   25.057180 H          1 MOL1         0.0972
      21    H14     18.458639   20.502336   26.664602 H          1 MOL1         0.0972
      22    H15     17.567450   19.325286   25.675791 H          1 MOL1         0.0972
      23    N1      20.254596   18.596855   25.883920 N.4        1 MOL1        -0.5974
      24    H16     19.659822   17.765940   25.939723 H          1 MOL1         0.3625
      25    H17     21.162110   18.302406   25.513777 H          1 MOL1         0.3625
      26    H18     20.407898   18.928673   26.840369 H          1 MOL1         0.3625
@<TRIPOS>BOND
    1     1     2    1
    2     1     3    1
    3     1     4    1
    4     1     5    1
    5     5     6    1
    6     5     7    1
    7     5     8    1
    8     8     9    1
    9     8    10    1
   10     8    11    1
   11    11    12    1
   12    11    13    1
   13    11    14    1
   14    14    15    1
   15    14    16    1
   16    14    17    1
   17    17    18    1
   18    17    19    1
   19    19    20    1
   20    19    21    1
   21    19    22    1
   22    17    23    1
   23    23    24    1
   24    23    25    1
   25    23    26    1
@<TRIPOS>SUBSTRUCTURE
       1 MOL1            1 RESIDUE      1      MOL     
@<SCITEGIC>MOL_PROPERTY
VM2 Rank
SciTegic.value.IntegerValue
8

@<SCITEGIC>MOL_PROPERTY
Conf_Id
SciTegic.value.IntegerValue
753

@<SCITEGIC>MOL_PROPERTY
Probability
SciTegic.value.DoubleValue
4.39

@<SCITEGIC>MOL_PROPERTY
Sum Probability
SciTegic.value.DoubleValue
59.24

@<SCITEGIC>MOL_PROPERTY
Delta G
SciTegic.value.DoubleValue
0.807

@<SCITEGIC>MOL_PROPERTY
G
SciTegic.value.DoubleValue
24.519

@<SCITEGIC>MOL_PROPERTY
E
SciTegic.value.DoubleValue
-8.104

@<SCITEGIC>MOL_PROPERTY
-TS
SciTegic.value.DoubleValue
32.623

@<SCITEGIC>MOL_PROPERTY
U+W
SciTegic.value.DoubleValue
-29.565

@<SCITEGIC>MOL_PROPERTY
U
SciTegic.value.DoubleValue
24.282

@<SCITEGIC>MOL_PROPERTY
W
SciTegic.value.DoubleValue
-53.847

@<SCITEGIC>MOL_PROPERTY
W(PB)
SciTegic.value.DoubleValue
-56.207

@<SCITEGIC>MOL_PROPERTY
W(SA)
SciTegic.value.DoubleValue
2.360

@<SCITEGIC>MOL_PROPERTY
Valence
SciTegic.value.DoubleValue
3.311

@<SCITEGIC>MOL_PROPERTY
Coulomb
SciTegic.value.DoubleValue
19.887

@<SCITEGIC>MOL_PROPERTY
VdW
SciTegic.value.DoubleValue
1.083

@<SCITEGIC>MOL_PROPERTY
VdW6
SciTegic.value.DoubleValue
-7.444

@<SCITEGIC>MOL_PROPERTY
VdW12
SciTegic.value.DoubleValue
8.527

@<SCITEGIC>MOL_PROPERTY
Bond
SciTegic.value.DoubleValue
0.219

@<SCITEGIC>MOL_PROPERTY
Angle
SciTegic.value.DoubleValue
1.167

@<SCITEGIC>MOL_PROPERTY
Pdih
SciTegic.value.DoubleValue
1.926

@<SCITEGIC>MOL_PROPERTY
Idih
SciTegic.value.DoubleValue
0.000

@<SCITEGIC>MOL_PROPERTY
Tether
SciTegic.value.DoubleValue
0.000

@<TRIPOS>MOLECULE
guest-s13_vm2.mol2 : vm2 ligand conformer 9
          26          25           1
SMALL
USER_CHARGES
 
@<TRIPOS>ATOM
       1    C1      20.963741   19.512698   19.355412 C.3        1 MOL1        -0.2398
       2    H1      21.772538   18.771412   19.395110 H          1 MOL1         0.0972
       3    H2      20.661707   19.625929   18.306128 H          1 MOL1         0.0972
       4    H3      21.365576   20.475846   19.696150 H          1 MOL1         0.0972
       5    C2      19.765319   19.073162   20.223000 C.3        1 MOL1        -0.1383
       6    H4      19.363995   18.125745   19.836660 H          1 MOL1         0.0961
       7    H5      18.960745   19.816915   20.136885 H          1 MOL1         0.0961
       8    C3      20.163814   18.905438   21.705912 C.3        1 MOL1        -0.1407
       9    H6      20.966811   18.159755   21.786731 H          1 MOL1         0.0961
      10    H7      20.571572   19.855044   22.077261 H          1 MOL1         0.0961
      11    C4      18.962082   18.468460   22.577505 C.3        1 MOL1        -0.1407
      12    H8      18.532322   17.547125   22.160673 H          1 MOL1         0.0961
      13    H9      18.166878   19.223604   22.521415 H          1 MOL1         0.0961
      14    C5      19.343564   18.205280   24.057289 C.3        1 MOL1        -0.1472
      15    H10     18.447527   17.885460   24.605567 H          1 MOL1         0.0961
      16    H11     20.039104   17.356298   24.089758 H          1 MOL1         0.0961
      17    C6      19.990387   19.403624   24.791578 C.3        1 MOL1         0.1190
      18    H12     20.883847   19.706613   24.237752 H          1 MOL1         0.0923
      19    C7      19.039187   20.610467   24.879016 C.3        1 MOL1        -0.2463
      20    H13     18.798368   21.000068   23.883068 H          1 MOL1         0.0972
      21    H14     19.503136   21.428273   25.443992 H          1 MOL1         0.0972
      22    H15     18.100770   20.340604   25.379177 H          1 MOL1         0.0972
      23    N1      20.459907   19.008871   26.164289 N.4        1 MOL1        -0.5974
      24    H16     19.679217   18.712806   26.756205 H          1 MOL1         0.3625
      25    H17     21.128062   18.233788   26.126354 H          1 MOL1         0.3625
      26    H18     20.924536   19.787856   26.639412 H          1 MOL1         0.3625
@<TRIPOS>BOND
    1     1     2    1
    2     1     3    1
    3     1     4    1
    4     1     5    1
    5     5     6    1
    6     5     7    1
    7     5     8    1
    8     8     9    1
    9     8    10    1
   10     8    11    1
   11    11    12    1
   12    11    13    1
   13    11    14    1
   14    14    15    1
   15    14    16    1
   16    14    17    1
   17    17    18    1
   18    17    19    1
   19    19    20    1
   20    19    21    1
   21    19    22    1
   22    17    23    1
   23    23    24    1
   24    23    25    1
   25    23    26    1
@<TRIPOS>SUBSTRUCTURE
       1 MOL1            1 RESIDUE      1      MOL     
@<SCITEGIC>MOL_PROPERTY
VM2 Rank
SciTegic.value.IntegerValue
9

@<SCITEGIC>MOL_PROPERTY
Conf_Id
SciTegic.value.IntegerValue
1021

@<SCITEGIC>MOL_PROPERTY
Probability
SciTegic.value.DoubleValue
3.72

@<SCITEGIC>MOL_PROPERTY
Sum Probability
SciTegic.value.DoubleValue
62.96

@<SCITEGIC>MOL_PROPERTY
Delta G
SciTegic.value.DoubleValue
0.906

@<SCITEGIC>MOL_PROPERTY
G
SciTegic.value.DoubleValue
24.618

@<SCITEGIC>MOL_PROPERTY
E
SciTegic.value.DoubleValue
-8.224

@<SCITEGIC>MOL_PROPERTY
-TS
SciTegic.value.DoubleValue
32.842

@<SCITEGIC>MOL_PROPERTY
U+W
SciTegic.value.DoubleValue
-29.686

@<SCITEGIC>MOL_PROPERTY
U
SciTegic.value.DoubleValue
24.336

@<SCITEGIC>MOL_PROPERTY
W
SciTegic.value.DoubleValue
-54.021

@<SCITEGIC>MOL_PROPERTY
W(PB)
SciTegic.value.DoubleValue
-56.336

@<SCITEGIC>MOL_PROPERTY
W(SA)
SciTegic.value.DoubleValue
2.315

@<SCITEGIC>MOL_PROPERTY
Valence
SciTegic.value.DoubleValue
3.530

@<SCITEGIC>MOL_PROPERTY
Coulomb
SciTegic.value.DoubleValue
19.945

@<SCITEGIC>MOL_PROPERTY
VdW
SciTegic.value.DoubleValue
0.861

@<SCITEGIC>MOL_PROPERTY
VdW6
SciTegic.value.DoubleValue
-7.915

@<SCITEGIC>MOL_PROPERTY
VdW12
SciTegic.value.DoubleValue
8.775

@<SCITEGIC>MOL_PROPERTY
Bond
SciTegic.value.DoubleValue
0.213

@<SCITEGIC>MOL_PROPERTY
Angle
SciTegic.value.DoubleValue
1.415

@<SCITEGIC>MOL_PROPERTY
Pdih
SciTegic.value.DoubleValue
1.903

@<SCITEGIC>MOL_PROPERTY
Idih
SciTegic.value.DoubleValue
0.000

@<SCITEGIC>MOL_PROPERTY
Tether
SciTegic.value.DoubleValue
0.000

@<TRIPOS>MOLECULE
guest-s13_vm2.mol2 : vm2 ligand conformer 10
          26          25           1
SMALL
USER_CHARGES
 
@<TRIPOS>ATOM
       1    C1      20.806536   19.742726   19.540159 C.3        1 MOL1        -0.2398
       2    H1      20.823347   20.635272   20.177756 H          1 MOL1         0.0972
       3    H2      21.781378   19.244293   19.619358 H          1 MOL1         0.0972
       4    H3      20.685815   20.080901   18.502854 H          1 MOL1         0.0972
       5    C2      19.659015   18.785057   19.933638 C.3        1 MOL1        -0.1383
       6    H4      19.606832   17.972815   19.195164 H          1 MOL1         0.0961
       7    H5      18.698398   19.315664   19.875095 H          1 MOL1         0.0961
       8    C3      19.830187   18.165576   21.341712 C.3        1 MOL1        -0.1407
       9    H6      19.035623   17.422126   21.494500 H          1 MOL1         0.0961
      10    H7      20.780552   17.615971   21.386776 H          1 MOL1         0.0961
      11    C4      19.773649   19.207513   22.484754 C.3        1 MOL1        -0.1407
      12    H8      18.847927   19.790054   22.391075 H          1 MOL1         0.0961
      13    H9      20.609291   19.913160   22.388468 H          1 MOL1         0.0961
      14    C5      19.838379   18.532830   23.877171 C.3        1 MOL1        -0.1472
      15    H10     18.966991   17.878511   24.012988 H          1 MOL1         0.0961
      16    H11     20.723229   17.883418   23.909415 H          1 MOL1         0.0961
      17    C6      19.924185   19.534480   25.051570 C.3        1 MOL1         0.1190
      18    H12     20.774903   20.199559   24.873696 H          1 MOL1         0.0923
      19    C7      18.652606   20.393026   25.176495 C.3        1 MOL1        -0.2463
      20    H13     18.513109   21.030118   24.295578 H          1 MOL1         0.0972
      21    H14     18.718206   21.055854   26.048090 H          1 MOL1         0.0972
      22    H15     17.760012   19.765781   25.292763 H          1 MOL1         0.0972
      23    N1      20.203444   18.826791   26.348501 N.4        1 MOL1        -0.5974
      24    H16     21.070122   18.283260   26.302911 H          1 MOL1         0.3625
      25    H17     20.300827   19.489510   27.122955 H          1 MOL1         0.3625
      26    H18     19.448056   18.180900   26.592878 H          1 MOL1         0.3625
@<TRIPOS>BOND
    1     1     2    1
    2     1     3    1
    3     1     4    1
    4     1     5    1
    5     5     6    1
    6     5     7    1
    7     5     8    1
    8     8     9    1
    9     8    10    1
   10     8    11    1
   11    11    12    1
   12    11    13    1
   13    11    14    1
   14    14    15    1
   15    14    16    1
   16    14    17    1
   17    17    18    1
   18    17    19    1
   19    19    20    1
   20    19    21    1
   21    19    22    1
   22    17    23    1
   23    23    24    1
   24    23    25    1
   25    23    26    1
@<TRIPOS>SUBSTRUCTURE
       1 MOL1            1 RESIDUE      1      MOL     
@<SCITEGIC>MOL_PROPERTY
VM2 Rank
SciTegic.value.IntegerValue
10

@<SCITEGIC>MOL_PROPERTY
Conf_Id
SciTegic.value.IntegerValue
1087

@<SCITEGIC>MOL_PROPERTY
Probability
SciTegic.value.DoubleValue
2.98

@<SCITEGIC>MOL_PROPERTY
Sum Probability
SciTegic.value.DoubleValue
65.93

@<SCITEGIC>MOL_PROPERTY
Delta G
SciTegic.value.DoubleValue
1.038

@<SCITEGIC>MOL_PROPERTY
G
SciTegic.value.DoubleValue
24.750

@<SCITEGIC>MOL_PROPERTY
E
SciTegic.value.DoubleValue
-7.930

@<SCITEGIC>MOL_PROPERTY
-TS
SciTegic.value.DoubleValue
32.681

@<SCITEGIC>MOL_PROPERTY
U+W
SciTegic.value.DoubleValue
-29.392

@<SCITEGIC>MOL_PROPERTY
U
SciTegic.value.DoubleValue
24.442

@<SCITEGIC>MOL_PROPERTY
W
SciTegic.value.DoubleValue
-53.835

@<SCITEGIC>MOL_PROPERTY
W(PB)
SciTegic.value.DoubleValue
-56.129

@<SCITEGIC>MOL_PROPERTY
W(SA)
SciTegic.value.DoubleValue
2.295

@<SCITEGIC>MOL_PROPERTY
Valence
SciTegic.value.DoubleValue
3.781

@<SCITEGIC>MOL_PROPERTY
Coulomb
SciTegic.value.DoubleValue
19.492

@<SCITEGIC>MOL_PROPERTY
VdW
SciTegic.value.DoubleValue
1.170

@<SCITEGIC>MOL_PROPERTY
VdW6
SciTegic.value.DoubleValue
-7.583

@<SCITEGIC>MOL_PROPERTY
VdW12
SciTegic.value.DoubleValue
8.753

@<SCITEGIC>MOL_PROPERTY
Bond
SciTegic.value.DoubleValue
0.218

@<SCITEGIC>MOL_PROPERTY
Angle
SciTegic.value.DoubleValue
1.390

@<SCITEGIC>MOL_PROPERTY
Pdih
SciTegic.value.DoubleValue
2.173

@<SCITEGIC>MOL_PROPERTY
Idih
SciTegic.value.DoubleValue
0.000

@<SCITEGIC>MOL_PROPERTY
Tether
SciTegic.value.DoubleValue
0.000

@<TRIPOS>MOLECULE
guest-s13_vm2.mol2 : vm2 ligand conformer 11
          26          25           1
SMALL
USER_CHARGES
 
@<TRIPOS>ATOM
       1    C1      19.358676   19.541896   19.449249 C.3        1 MOL1        -0.2398
       2    H1      19.522432   19.914287   18.429715 H          1 MOL1         0.0972
       3    H2      18.554458   18.795822   19.408824 H          1 MOL1         0.0972
       4    H3      19.013833   20.387483   20.057080 H          1 MOL1         0.0972
       5    C2      20.658961   18.927553   20.015626 C.3        1 MOL1        -0.1383
       6    H4      21.437501   19.700865   20.075833 H          1 MOL1         0.0961
       7    H5      21.030260   18.172233   19.308917 H          1 MOL1         0.0961
       8    C3      20.473634   18.262114   21.400814 C.3        1 MOL1        -0.1407
       9    H6      19.708647   17.476483   21.330896 H          1 MOL1         0.0961
      10    H7      21.411113   17.757239   21.672014 H          1 MOL1         0.0961
      11    C4      20.094309   19.261922   22.519804 C.3        1 MOL1        -0.1407
      12    H8      19.127371   19.722401   22.283301 H          1 MOL1         0.0961
      13    H9      20.836578   20.071266   22.555146 H          1 MOL1         0.0961
      14    C5      20.017595   18.570525   23.903495 C.3        1 MOL1        -0.1472
      15    H10     19.232983   17.802324   23.890342 H          1 MOL1         0.0961
      16    H11     20.964449   18.044986   24.084964 H          1 MOL1         0.0961
      17    C6      19.769643   19.547416   25.075802 C.3        1 MOL1         0.1190
      18    H12     20.538085   20.325903   25.041966 H          1 MOL1         0.0923
      19    C7      18.388677   20.221978   24.988161 C.3        1 MOL1        -0.2463
      20    H13     18.309864   20.856122   24.097675 H          1 MOL1         0.0972
      21    H14     18.217309   20.865671   25.859722 H          1 MOL1         0.0972
      22    H15     17.584371   19.476653   24.952610 H          1 MOL1         0.0972
      23    N1      19.926504   18.854596   26.401048 N.4        1 MOL1        -0.5974
      24    H16     19.237658   18.106469   26.516383 H          1 MOL1         0.3625
      25    H17     20.855470   18.435257   26.500122 H          1 MOL1         0.3625
      26    H18     19.802668   19.506387   27.180978 H          1 MOL1         0.3625
@<TRIPOS>BOND
    1     1     2    1
    2     1     3    1
    3     1     4    1
    4     1     5    1
    5     5     6    1
    6     5     7    1
    7     5     8    1
    8     8     9    1
    9     8    10    1
   10     8    11    1
   11    11    12    1
   12    11    13    1
   13    11    14    1
   14    14    15    1
   15    14    16    1
   16    14    17    1
   17    17    18    1
   18    17    19    1
   19    19    20    1
   20    19    21    1
   21    19    22    1
   22    17    23    1
   23    23    24    1
   24    23    25    1
   25    23    26    1
@<TRIPOS>SUBSTRUCTURE
       1 MOL1            1 RESIDUE      1      MOL     
@<SCITEGIC>MOL_PROPERTY
VM2 Rank
SciTegic.value.IntegerValue
11

@<SCITEGIC>MOL_PROPERTY
Conf_Id
SciTegic.value.IntegerValue
751

@<SCITEGIC>MOL_PROPERTY
Probability
SciTegic.value.DoubleValue
2.50

@<SCITEGIC>MOL_PROPERTY
Sum Probability
SciTegic.value.DoubleValue
68.43

@<SCITEGIC>MOL_PROPERTY
Delta G
SciTegic.value.DoubleValue
1.142

@<SCITEGIC>MOL_PROPERTY
G
SciTegic.value.DoubleValue
24.854

@<SCITEGIC>MOL_PROPERTY
E
SciTegic.value.DoubleValue
-7.820

@<SCITEGIC>MOL_PROPERTY
-TS
SciTegic.value.DoubleValue
32.674

@<SCITEGIC>MOL_PROPERTY
U+W
SciTegic.value.DoubleValue
-29.282

@<SCITEGIC>MOL_PROPERTY
U
SciTegic.value.DoubleValue
24.454

@<SCITEGIC>MOL_PROPERTY
W
SciTegic.value.DoubleValue
-53.736

@<SCITEGIC>MOL_PROPERTY
W(PB)
SciTegic.value.DoubleValue
-56.066

@<SCITEGIC>MOL_PROPERTY
W(SA)
SciTegic.value.DoubleValue
2.330

@<SCITEGIC>MOL_PROPERTY
Valence
SciTegic.value.DoubleValue
3.783

@<SCITEGIC>MOL_PROPERTY
Coulomb
SciTegic.value.DoubleValue
19.491

@<SCITEGIC>MOL_PROPERTY
VdW
SciTegic.value.DoubleValue
1.181

@<SCITEGIC>MOL_PROPERTY
VdW6
SciTegic.value.DoubleValue
-7.595

@<SCITEGIC>MOL_PROPERTY
VdW12
SciTegic.value.DoubleValue
8.776

@<SCITEGIC>MOL_PROPERTY
Bond
SciTegic.value.DoubleValue
0.221

@<SCITEGIC>MOL_PROPERTY
Angle
SciTegic.value.DoubleValue
1.392

@<SCITEGIC>MOL_PROPERTY
Pdih
SciTegic.value.DoubleValue
2.171

@<SCITEGIC>MOL_PROPERTY
Idih
SciTegic.value.DoubleValue
0.000

@<SCITEGIC>MOL_PROPERTY
Tether
SciTegic.value.DoubleValue
0.000

@<TRIPOS>MOLECULE
guest-s13_vm2.mol2 : vm2 ligand conformer 12
          26          25           1
SMALL
USER_CHARGES
 
@<TRIPOS>ATOM
       1    C1      20.593504   17.767048   19.935826 C.3        1 MOL1        -0.2398
       2    H1      20.389105   17.248491   18.990177 H          1 MOL1         0.0972
       3    H2      21.669547   17.980506   19.975725 H          1 MOL1         0.0972
       4    H3      20.349296   17.074319   20.750598 H          1 MOL1         0.0972
       5    C2      19.764825   19.068393   20.028759 C.3        1 MOL1        -0.1383
       6    H4      18.693062   18.825541   20.019120 H          1 MOL1         0.0961
       7    H5      19.951209   19.671574   19.129188 H          1 MOL1         0.0961
       8    C3      20.097152   19.922296   21.276255 C.3        1 MOL1        -0.1407
       9    H6      21.164748   20.182020   21.268569 H          1 MOL1         0.0961
      10    H7      19.547739   20.871206   21.205164 H          1 MOL1         0.0961
      11    C4      19.737631   19.228730   22.612221 C.3        1 MOL1        -0.1407
      12    H8      20.334835   18.315359   22.723609 H          1 MOL1         0.0961
      13    H9      18.683627   18.923024   22.583545 H          1 MOL1         0.0961
      14    C5      19.986228   20.163940   23.824417 C.3        1 MOL1        -0.1472
      15    H10     21.029753   20.504915   23.808292 H          1 MOL1         0.0961
      16    H11     19.371741   21.067695   23.717772 H          1 MOL1         0.0961
      17    C6      19.700482   19.530142   25.206569 C.3        1 MOL1         0.1190
      18    H12     19.939935   20.282541   25.964457 H          1 MOL1         0.0923
      19    C7      18.217755   19.155351   25.376085 C.3        1 MOL1        -0.2463
      20    H13     18.018044   18.837920   26.406874 H          1 MOL1         0.0972
      21    H14     17.928288   18.333203   24.710897 H          1 MOL1         0.0972
      22    H15     17.571195   20.015401   25.162014 H          1 MOL1         0.0972
      23    N1      20.590422   18.352101   25.493869 N.4        1 MOL1        -0.5974
      24    H16     20.420784   17.588504   24.834816 H          1 MOL1         0.3625
      25    H17     21.580565   18.604166   25.426362 H          1 MOL1         0.3625
      26    H18     20.432194   17.984955   26.436524 H          1 MOL1         0.3625
@<TRIPOS>BOND
    1     1     2    1
    2     1     3    1
    3     1     4    1
    4     1     5    1
    5     5     6    1
    6     5     7    1
    7     5     8    1
    8     8     9    1
    9     8    10    1
   10     8    11    1
   11    11    12    1
   12    11    13    1
   13    11    14    1
   14    14    15    1
   15    14    16    1
   16    14    17    1
   17    17    18    1
   18    17    19    1
   19    19    20    1
   20    19    21    1
   21    19    22    1
   22    17    23    1
   23    23    24    1
   24    23    25    1
   25    23    26    1
@<TRIPOS>SUBSTRUCTURE
       1 MOL1            1 RESIDUE      1      MOL     
@<SCITEGIC>MOL_PROPERTY
VM2 Rank
SciTegic.value.IntegerValue
12

@<SCITEGIC>MOL_PROPERTY
Conf_Id
SciTegic.value.IntegerValue
1106

@<SCITEGIC>MOL_PROPERTY
Probability
SciTegic.value.DoubleValue
2.41

@<SCITEGIC>MOL_PROPERTY
Sum Probability
SciTegic.value.DoubleValue
70.84

@<SCITEGIC>MOL_PROPERTY
Delta G
SciTegic.value.DoubleValue
1.165

@<SCITEGIC>MOL_PROPERTY
G
SciTegic.value.DoubleValue
24.877

@<SCITEGIC>MOL_PROPERTY
E
SciTegic.value.DoubleValue
-7.930

@<SCITEGIC>MOL_PROPERTY
-TS
SciTegic.value.DoubleValue
32.807

@<SCITEGIC>MOL_PROPERTY
U+W
SciTegic.value.DoubleValue
-29.392

@<SCITEGIC>MOL_PROPERTY
U
SciTegic.value.DoubleValue
24.790

@<SCITEGIC>MOL_PROPERTY
W
SciTegic.value.DoubleValue
-54.182

@<SCITEGIC>MOL_PROPERTY
W(PB)
SciTegic.value.DoubleValue
-56.462

@<SCITEGIC>MOL_PROPERTY
W(SA)
SciTegic.value.DoubleValue
2.279

@<SCITEGIC>MOL_PROPERTY
Valence
SciTegic.value.DoubleValue
3.751

@<SCITEGIC>MOL_PROPERTY
Coulomb
SciTegic.value.DoubleValue
19.894

@<SCITEGIC>MOL_PROPERTY
VdW
SciTegic.value.DoubleValue
1.145

@<SCITEGIC>MOL_PROPERTY
VdW6
SciTegic.value.DoubleValue
-8.074

@<SCITEGIC>MOL_PROPERTY
VdW12
SciTegic.value.DoubleValue
9.219

@<SCITEGIC>MOL_PROPERTY
Bond
SciTegic.value.DoubleValue
0.243

@<SCITEGIC>MOL_PROPERTY
Angle
SciTegic.value.DoubleValue
1.440

@<SCITEGIC>MOL_PROPERTY
Pdih
SciTegic.value.DoubleValue
2.068

@<SCITEGIC>MOL_PROPERTY
Idih
SciTegic.value.DoubleValue
0.000

@<SCITEGIC>MOL_PROPERTY
Tether
SciTegic.value.DoubleValue
0.000

@<TRIPOS>MOLECULE
guest-s13_vm2.mol2 : vm2 ligand conformer 13
          26          25           1
SMALL
USER_CHARGES
 
@<TRIPOS>ATOM
       1    C1      20.261609   18.307096   19.127365 C.3        1 MOL1        -0.2398
       2    H1      19.838134   17.392755   18.691839 H          1 MOL1         0.0972
       3    H2      19.974542   19.150055   18.485309 H          1 MOL1         0.0972
       4    H3      21.355434   18.216354   19.103922 H          1 MOL1         0.0972
       5    C2      19.752916   18.509608   20.570427 C.3        1 MOL1        -0.1383
       6    H4      20.023124   17.630275   21.170107 H          1 MOL1         0.0961
       7    H5      18.655468   18.567016   20.564943 H          1 MOL1         0.0961
       8    C3      20.340073   19.791316   21.207277 C.3        1 MOL1        -0.1407
       9    H6      21.434802   19.711759   21.257511 H          1 MOL1         0.0961
      10    H7      20.123499   20.647052   20.552911 H          1 MOL1         0.0961
      11    C4      19.775490   20.095428   22.616741 C.3        1 MOL1        -0.1407
      12    H8      18.684907   20.203880   22.549597 H          1 MOL1         0.0961
      13    H9      20.165401   21.068598   22.945910 H          1 MOL1         0.0961
      14    C5      20.143049   19.020881   23.672476 C.3        1 MOL1        -0.1472
      15    H10     19.646645   18.071899   23.433263 H          1 MOL1         0.0961
      16    H11     21.223317   18.832117   23.618498 H          1 MOL1         0.0961
      17    C6      19.789063   19.430045   25.120427 C.3        1 MOL1         0.1190
      18    H12     20.263067   20.393915   25.330073 H          1 MOL1         0.0923
      19    C7      18.270705   19.579436   25.324803 C.3        1 MOL1        -0.2463
      20    H13     17.863202   20.388834   24.708105 H          1 MOL1         0.0972
      21    H14     18.043690   19.822607   26.370099 H          1 MOL1         0.0972
      22    H15     17.742631   18.652457   25.068825 H          1 MOL1         0.0972
      23    N1      20.355094   18.454191   26.114484 N.4        1 MOL1        -0.5974
      24    H16     21.371885   18.371639   26.025295 H          1 MOL1         0.3625
      25    H17     20.157039   18.743127   27.076645 H          1 MOL1         0.3625
      26    H18     19.958473   17.519090   25.989045 H          1 MOL1         0.3625
@<TRIPOS>BOND
    1     1     2    1
    2     1     3    1
    3     1     4    1
    4     1     5    1
    5     5     6    1
    6     5     7    1
    7     5     8    1
    8     8     9    1
    9     8    10    1
   10     8    11    1
   11    11    12    1
   12    11    13    1
   13    11    14    1
   14    14    15    1
   15    14    16    1
   16    14    17    1
   17    17    18    1
   18    17    19    1
   19    19    20    1
   20    19    21    1
   21    19    22    1
   22    17    23    1
   23    23    24    1
   24    23    25    1
   25    23    26    1
@<TRIPOS>SUBSTRUCTURE
       1 MOL1            1 RESIDUE      1      MOL     
@<SCITEGIC>MOL_PROPERTY
VM2 Rank
SciTegic.value.IntegerValue
13

@<SCITEGIC>MOL_PROPERTY
Conf_Id
SciTegic.value.IntegerValue
456

@<SCITEGIC>MOL_PROPERTY
Probability
SciTegic.value.DoubleValue
2.40

@<SCITEGIC>MOL_PROPERTY
Sum Probability
SciTegic.value.DoubleValue
73.25

@<SCITEGIC>MOL_PROPERTY
Delta G
SciTegic.value.DoubleValue
1.165

@<SCITEGIC>MOL_PROPERTY
G
SciTegic.value.DoubleValue
24.877

@<SCITEGIC>MOL_PROPERTY
E
SciTegic.value.DoubleValue
-7.823

@<SCITEGIC>MOL_PROPERTY
-TS
SciTegic.value.DoubleValue
32.700

@<SCITEGIC>MOL_PROPERTY
U+W
SciTegic.value.DoubleValue
-29.285

@<SCITEGIC>MOL_PROPERTY
U
SciTegic.value.DoubleValue
24.614

@<SCITEGIC>MOL_PROPERTY
W
SciTegic.value.DoubleValue
-53.899

@<SCITEGIC>MOL_PROPERTY
W(PB)
SciTegic.value.DoubleValue
-56.206

@<SCITEGIC>MOL_PROPERTY
W(SA)
SciTegic.value.DoubleValue
2.307

@<SCITEGIC>MOL_PROPERTY
Valence
SciTegic.value.DoubleValue
3.779

@<SCITEGIC>MOL_PROPERTY
Coulomb
SciTegic.value.DoubleValue
19.717

@<SCITEGIC>MOL_PROPERTY
VdW
SciTegic.value.DoubleValue
1.118

@<SCITEGIC>MOL_PROPERTY
VdW6
SciTegic.value.DoubleValue
-7.653

@<SCITEGIC>MOL_PROPERTY
VdW12
SciTegic.value.DoubleValue
8.772

@<SCITEGIC>MOL_PROPERTY
Bond
SciTegic.value.DoubleValue
0.222

@<SCITEGIC>MOL_PROPERTY
Angle
SciTegic.value.DoubleValue
1.351

@<SCITEGIC>MOL_PROPERTY
Pdih
SciTegic.value.DoubleValue
2.206

@<SCITEGIC>MOL_PROPERTY
Idih
SciTegic.value.DoubleValue
0.000

@<SCITEGIC>MOL_PROPERTY
Tether
SciTegic.value.DoubleValue
0.000

@<TRIPOS>MOLECULE
guest-s13_vm2.mol2 : vm2 ligand conformer 14
          26          25           1
SMALL
USER_CHARGES
 
@<TRIPOS>ATOM
       1    C1      19.388486   18.123807   19.728031 C.3        1 MOL1        -0.2398
       2    H1      18.971764   17.480226   20.512599 H          1 MOL1         0.0972
       3    H2      18.633669   18.874909   19.461348 H          1 MOL1         0.0972
       4    H3      19.563357   17.495606   18.845016 H          1 MOL1         0.0972
       5    C2      20.704248   18.795192   20.182913 C.3        1 MOL1        -0.1383
       6    H4      21.145173   19.325247   19.327097 H          1 MOL1         0.0961
       7    H5      21.431136   18.024169   20.474275 H          1 MOL1         0.0961
       8    C3      20.513345   19.800590   21.344219 C.3        1 MOL1        -0.1407
       9    H6      21.470899   20.307843   21.526170 H          1 MOL1         0.0961
      10    H7      19.802905   20.581546   21.039821 H          1 MOL1         0.0961
      11    C4      20.032308   19.140663   22.658861 C.3        1 MOL1        -0.1407
      12    H8      20.718814   18.326307   22.925008 H          1 MOL1         0.0961
      13    H9      19.044883   18.690342   22.499747 H          1 MOL1         0.0961
      14    C5      19.954814   20.168954   23.817521 C.3        1 MOL1        -0.1472
      15    H10     20.935298   20.647006   23.942096 H          1 MOL1         0.0961
      16    H11     19.259689   20.973272   23.542470 H          1 MOL1         0.0961
      17    C6      19.521503   19.582478   25.182065 C.3        1 MOL1         0.1190
      18    H12     19.539784   20.401457   25.907859 H          1 MOL1         0.0923
      19    C7      18.086959   19.027036   25.144728 C.3        1 MOL1        -0.2463
      20    H13     18.012581   18.136687   24.509198 H          1 MOL1         0.0972
      21    H14     17.386573   19.780999   24.764530 H          1 MOL1         0.0972
      22    H15     17.758244   18.746674   26.152951 H          1 MOL1         0.0972
      23    N1      20.486338   18.549280   25.695662 N.4        1 MOL1        -0.5974
      24    H16     21.436327   18.924793   25.766190 H          1 MOL1         0.3625
      25    H17     20.218895   18.217733   26.626768 H          1 MOL1         0.3625
      26    H18     20.521855   17.734463   25.078358 H          1 MOL1         0.3625
@<TRIPOS>BOND
    1     1     2    1
    2     1     3    1
    3     1     4    1
    4     1     5    1
    5     5     6    1
    6     5     7    1
    7     5     8    1
    8     8     9    1
    9     8    10    1
   10     8    11    1
   11    11    12    1
   12    11    13    1
   13    11    14    1
   14    14    15    1
   15    14    16    1
   16    14    17    1
   17    17    18    1
   18    17    19    1
   19    19    20    1
   20    19    21    1
   21    19    22    1
   22    17    23    1
   23    23    24    1
   24    23    25    1
   25    23    26    1
@<TRIPOS>SUBSTRUCTURE
       1 MOL1            1 RESIDUE      1      MOL     
@<SCITEGIC>MOL_PROPERTY
VM2 Rank
SciTegic.value.IntegerValue
14

@<SCITEGIC>MOL_PROPERTY
Conf_Id
SciTegic.value.IntegerValue
494

@<SCITEGIC>MOL_PROPERTY
Probability
SciTegic.value.DoubleValue
2.39

@<SCITEGIC>MOL_PROPERTY
Sum Probability
SciTegic.value.DoubleValue
75.64

@<SCITEGIC>MOL_PROPERTY
Delta G
SciTegic.value.DoubleValue
1.169

@<SCITEGIC>MOL_PROPERTY
G
SciTegic.value.DoubleValue
24.881

@<SCITEGIC>MOL_PROPERTY
E
SciTegic.value.DoubleValue
-7.927

@<SCITEGIC>MOL_PROPERTY
-TS
SciTegic.value.DoubleValue
32.808

@<SCITEGIC>MOL_PROPERTY
U+W
SciTegic.value.DoubleValue
-29.389

@<SCITEGIC>MOL_PROPERTY
U
SciTegic.value.DoubleValue
24.690

@<SCITEGIC>MOL_PROPERTY
W
SciTegic.value.DoubleValue
-54.079

@<SCITEGIC>MOL_PROPERTY
W(PB)
SciTegic.value.DoubleValue
-56.373

@<SCITEGIC>MOL_PROPERTY
W(SA)
SciTegic.value.DoubleValue
2.294

@<SCITEGIC>MOL_PROPERTY
Valence
SciTegic.value.DoubleValue
3.755

@<SCITEGIC>MOL_PROPERTY
Coulomb
SciTegic.value.DoubleValue
19.785

@<SCITEGIC>MOL_PROPERTY
VdW
SciTegic.value.DoubleValue
1.150

@<SCITEGIC>MOL_PROPERTY
VdW6
SciTegic.value.DoubleValue
-8.077

@<SCITEGIC>MOL_PROPERTY
VdW12
SciTegic.value.DoubleValue
9.227

@<SCITEGIC>MOL_PROPERTY
Bond
SciTegic.value.DoubleValue
0.244

@<SCITEGIC>MOL_PROPERTY
Angle
SciTegic.value.DoubleValue
1.443

@<SCITEGIC>MOL_PROPERTY
Pdih
SciTegic.value.DoubleValue
2.068

@<SCITEGIC>MOL_PROPERTY
Idih
SciTegic.value.DoubleValue
0.000

@<SCITEGIC>MOL_PROPERTY
Tether
SciTegic.value.DoubleValue
0.000

@<TRIPOS>MOLECULE
guest-s13_vm2.mol2 : vm2 ligand conformer 15
          26          25           1
SMALL
USER_CHARGES
 
@<TRIPOS>ATOM
       1    C1      20.516550   18.410180   19.095868 C.3        1 MOL1        -0.2398
       2    H1      20.206566   19.254221   18.466000 H          1 MOL1         0.0972
       3    H2      21.470801   18.032303   18.706439 H          1 MOL1         0.0972
       4    H3      19.769813   17.612372   18.990363 H          1 MOL1         0.0972
       5    C2      20.662308   18.841565   20.570668 C.3        1 MOL1        -0.1383
       6    H4      21.435447   19.618769   20.647582 H          1 MOL1         0.0961
       7    H5      21.013386   17.983118   21.158084 H          1 MOL1         0.0961
       8    C3      19.326965   19.373910   21.142912 C.3        1 MOL1        -0.1407
       9    H6      18.953979   20.172901   20.487223 H          1 MOL1         0.0961
      10    H7      18.569505   18.578308   21.119187 H          1 MOL1         0.0961
      11    C4      19.444268   19.937593   22.580847 C.3        1 MOL1        -0.1407
      12    H8      18.491054   20.421098   22.829845 H          1 MOL1         0.0961
      13    H9      20.207847   20.727326   22.604913 H          1 MOL1         0.0961
      14    C5      19.773112   18.858089   23.645069 C.3        1 MOL1        -0.1472
      15    H10     19.003489   18.075063   23.629029 H          1 MOL1         0.0961
      16    H11     20.719021   18.370952   23.379717 H          1 MOL1         0.0961
      17    C6      19.913323   19.419505   25.079014 C.3        1 MOL1         0.1190
      18    H12     20.640231   20.237334   25.057799 H          1 MOL1         0.0923
      19    C7      18.581127   19.964800   25.625016 C.3        1 MOL1        -0.2463
      20    H13     18.697538   20.299237   26.663255 H          1 MOL1         0.0972
      21    H14     17.798228   19.196559   25.601451 H          1 MOL1         0.0972
      22    H15     18.234137   20.827774   25.045491 H          1 MOL1         0.0972
      23    N1      20.470347   18.382358   26.014605 N.4        1 MOL1        -0.5974
      24    H16     21.380093   18.036368   25.696408 H          1 MOL1         0.3625
      25    H17     20.602002   18.760830   26.956890 H          1 MOL1         0.3625
      26    H18     19.845312   17.575832   26.094466 H          1 MOL1         0.3625
@<TRIPOS>BOND
    1     1     2    1
    2     1     3    1
    3     1     4    1
    4     1     5    1
    5     5     6    1
    6     5     7    1
    7     5     8    1
    8     8     9    1
    9     8    10    1
   10     8    11    1
   11    11    12    1
   12    11    13    1
   13    11    14    1
   14    14    15    1
   15    14    16    1
   16    14    17    1
   17    17    18    1
   18    17    19    1
   19    19    20    1
   20    19    21    1
   21    19    22    1
   22    17    23    1
   23    23    24    1
   24    23    25    1
   25    23    26    1
@<TRIPOS>SUBSTRUCTURE
       1 MOL1            1 RESIDUE      1      MOL     
@<SCITEGIC>MOL_PROPERTY
VM2 Rank
SciTegic.value.IntegerValue
15

@<SCITEGIC>MOL_PROPERTY
Conf_Id
SciTegic.value.IntegerValue
1072

@<SCITEGIC>MOL_PROPERTY
Probability
SciTegic.value.DoubleValue
2.27

@<SCITEGIC>MOL_PROPERTY
Sum Probability
SciTegic.value.DoubleValue
77.90

@<SCITEGIC>MOL_PROPERTY
Delta G
SciTegic.value.DoubleValue
1.201

@<SCITEGIC>MOL_PROPERTY
G
SciTegic.value.DoubleValue
24.913

@<SCITEGIC>MOL_PROPERTY
E
SciTegic.value.DoubleValue
-7.677

@<SCITEGIC>MOL_PROPERTY
-TS
SciTegic.value.DoubleValue
32.589

@<SCITEGIC>MOL_PROPERTY
U+W
SciTegic.value.DoubleValue
-29.138

@<SCITEGIC>MOL_PROPERTY
U
SciTegic.value.DoubleValue
24.912

@<SCITEGIC>MOL_PROPERTY
W
SciTegic.value.DoubleValue
-54.050

@<SCITEGIC>MOL_PROPERTY
W(PB)
SciTegic.value.DoubleValue
-56.345

@<SCITEGIC>MOL_PROPERTY
W(SA)
SciTegic.value.DoubleValue
2.294

@<SCITEGIC>MOL_PROPERTY
Valence
SciTegic.value.DoubleValue
3.916

@<SCITEGIC>MOL_PROPERTY
Coulomb
SciTegic.value.DoubleValue
19.768

@<SCITEGIC>MOL_PROPERTY
VdW
SciTegic.value.DoubleValue
1.228

@<SCITEGIC>MOL_PROPERTY
VdW6
SciTegic.value.DoubleValue
-7.563

@<SCITEGIC>MOL_PROPERTY
VdW12
SciTegic.value.DoubleValue
8.791

@<SCITEGIC>MOL_PROPERTY
Bond
SciTegic.value.DoubleValue
0.234

@<SCITEGIC>MOL_PROPERTY
Angle
SciTegic.value.DoubleValue
1.481

@<SCITEGIC>MOL_PROPERTY
Pdih
SciTegic.value.DoubleValue
2.202

@<SCITEGIC>MOL_PROPERTY
Idih
SciTegic.value.DoubleValue
0.000

@<SCITEGIC>MOL_PROPERTY
Tether
SciTegic.value.DoubleValue
0.000

@<TRIPOS>MOLECULE
guest-s13_vm2.mol2 : vm2 ligand conformer 16
          26          25           1
SMALL
USER_CHARGES
 
@<TRIPOS>ATOM
       1    C1      20.288520   19.120672   19.037016 C.3        1 MOL1        -0.2398
       2    H1      21.385454   19.104934   18.995507 H          1 MOL1         0.0972
       3    H2      19.917912   18.161785   18.651782 H          1 MOL1         0.0972
       4    H3      19.937043   19.912670   18.363045 H          1 MOL1         0.0972
       5    C2      19.791790   19.370183   20.476896 C.3        1 MOL1        -0.1383
       6    H4      18.693558   19.409810   20.481369 H          1 MOL1         0.0961
       7    H5      20.147783   20.353877   20.810439 H          1 MOL1         0.0961
       8    C3      20.279025   18.267884   21.446898 C.3        1 MOL1        -0.1407
       9    H6      19.981006   17.287297   21.050642 H          1 MOL1         0.0961
      10    H7      21.377206   18.264423   21.482225 H          1 MOL1         0.0961
      11    C4      19.713107   18.409461   22.881372 C.3        1 MOL1        -0.1407
      12    H8      20.014829   17.524092   23.456015 H          1 MOL1         0.0961
      13    H9      18.616090   18.391750   22.836982 H          1 MOL1         0.0961
      14    C5      20.198441   19.692099   23.610638 C.3        1 MOL1        -0.1472
      15    H10     21.293167   19.749576   23.551233 H          1 MOL1         0.0961
      16    H11     19.818962   20.579730   23.089371 H          1 MOL1         0.0961
      17    C6      19.782835   19.790027   25.097654 C.3        1 MOL1         0.1190
      18    H12     20.193115   20.726363   25.488524 H          1 MOL1         0.0923
      19    C7      18.254531   19.844701   25.267633 C.3        1 MOL1        -0.2463
      20    H13     17.780683   18.898362   24.980874 H          1 MOL1         0.0972
      21    H14     17.822477   20.645514   24.654781 H          1 MOL1         0.0972
      22    H15     17.991840   20.047621   26.313092 H          1 MOL1         0.0972
      23    N1      20.379750   18.692973   25.935893 N.4        1 MOL1        -0.5974
      24    H16     20.035241   17.774318   25.646845 H          1 MOL1         0.3625
      25    H17     21.400881   18.676935   25.861790 H          1 MOL1         0.3625
      26    H18     20.147139   18.810157   26.926127 H          1 MOL1         0.3625
@<TRIPOS>BOND
    1     1     2    1
    2     1     3    1
    3     1     4    1
    4     1     5    1
    5     5     6    1
    6     5     7    1
    7     5     8    1
    8     8     9    1
    9     8    10    1
   10     8    11    1
   11    11    12    1
   12    11    13    1
   13    11    14    1
   14    14    15    1
   15    14    16    1
   16    14    17    1
   17    17    18    1
   18    17    19    1
   19    19    20    1
   20    19    21    1
   21    19    22    1
   22    17    23    1
   23    23    24    1
   24    23    25    1
   25    23    26    1
@<TRIPOS>SUBSTRUCTURE
       1 MOL1            1 RESIDUE      1      MOL     
@<SCITEGIC>MOL_PROPERTY
VM2 Rank
SciTegic.value.IntegerValue
16

@<SCITEGIC>MOL_PROPERTY
Conf_Id
SciTegic.value.IntegerValue
1049

@<SCITEGIC>MOL_PROPERTY
Probability
SciTegic.value.DoubleValue
1.94

@<SCITEGIC>MOL_PROPERTY
Sum Probability
SciTegic.value.DoubleValue
79.84

@<SCITEGIC>MOL_PROPERTY
Delta G
SciTegic.value.DoubleValue
1.293

@<SCITEGIC>MOL_PROPERTY
G
SciTegic.value.DoubleValue
25.005

@<SCITEGIC>MOL_PROPERTY
E
SciTegic.value.DoubleValue
-7.804

@<SCITEGIC>MOL_PROPERTY
-TS
SciTegic.value.DoubleValue
32.809

@<SCITEGIC>MOL_PROPERTY
U+W
SciTegic.value.DoubleValue
-29.266

@<SCITEGIC>MOL_PROPERTY
U
SciTegic.value.DoubleValue
24.725

@<SCITEGIC>MOL_PROPERTY
W
SciTegic.value.DoubleValue
-53.991

@<SCITEGIC>MOL_PROPERTY
W(PB)
SciTegic.value.DoubleValue
-56.300

@<SCITEGIC>MOL_PROPERTY
W(SA)
SciTegic.value.DoubleValue
2.309

@<SCITEGIC>MOL_PROPERTY
Valence
SciTegic.value.DoubleValue
3.779

@<SCITEGIC>MOL_PROPERTY
Coulomb
SciTegic.value.DoubleValue
19.804

@<SCITEGIC>MOL_PROPERTY
VdW
SciTegic.value.DoubleValue
1.142

@<SCITEGIC>MOL_PROPERTY
VdW6
SciTegic.value.DoubleValue
-8.104

@<SCITEGIC>MOL_PROPERTY
VdW12
SciTegic.value.DoubleValue
9.246

@<SCITEGIC>MOL_PROPERTY
Bond
SciTegic.value.DoubleValue
0.254

@<SCITEGIC>MOL_PROPERTY
Angle
SciTegic.value.DoubleValue
1.437

@<SCITEGIC>MOL_PROPERTY
Pdih
SciTegic.value.DoubleValue
2.089

@<SCITEGIC>MOL_PROPERTY
Idih
SciTegic.value.DoubleValue
0.000

@<SCITEGIC>MOL_PROPERTY
Tether
SciTegic.value.DoubleValue
0.000

@<TRIPOS>MOLECULE
guest-s13_vm2.mol2 : vm2 ligand conformer 17
          26          25           1
SMALL
USER_CHARGES
 
@<TRIPOS>ATOM
       1    C1      20.193572   20.042728   19.906767 C.3        1 MOL1        -0.2398
       2    H1      21.222583   19.915572   19.546315 H          1 MOL1         0.0972
       3    H2      19.608807   20.501668   19.099131 H          1 MOL1         0.0972
       4    H3      20.207566   20.748688   20.746457 H          1 MOL1         0.0972
       5    C2      19.577594   18.686257   20.317676 C.3        1 MOL1        -0.1383
       6    H4      19.474221   18.059166   19.421147 H          1 MOL1         0.0961
       7    H5      18.557381   18.840656   20.693438 H          1 MOL1         0.0961
       8    C3      20.424127   17.915104   21.362559 C.3        1 MOL1        -0.1407
       9    H6      19.930504   16.958102   21.580885 H          1 MOL1         0.0961
      10    H7      21.392258   17.657058   20.911628 H          1 MOL1         0.0961
      11    C4      20.682629   18.664674   22.695428 C.3        1 MOL1        -0.1407
      12    H8      21.269196   19.573433   22.505669 H          1 MOL1         0.0961
      13    H9      21.313496   18.023542   23.324766 H          1 MOL1         0.0961
      14    C5      19.385617   19.029271   23.462510 C.3        1 MOL1        -0.1472
      15    H10     18.771099   19.690235   22.838695 H          1 MOL1         0.0961
      16    H11     18.792113   18.122975   23.641514 H          1 MOL1         0.0961
      17    C6      19.659866   19.744382   24.803494 C.3        1 MOL1         0.1190
      18    H12     20.282702   20.621648   24.603046 H          1 MOL1         0.0923
      19    C7      18.341607   20.222729   25.433026 C.3        1 MOL1        -0.2463
      20    H13     17.677803   19.377639   25.654608 H          1 MOL1         0.0972
      21    H14     17.811594   20.905402   24.757172 H          1 MOL1         0.0972
      22    H15     18.531542   20.762755   26.368796 H          1 MOL1         0.0972
      23    N1      20.422988   18.882854   25.772540 N.4        1 MOL1        -0.5974
      24    H16     21.325687   18.594108   25.386508 H          1 MOL1         0.3625
      25    H17     20.609835   19.379785   26.648048 H          1 MOL1         0.3625
      26    H18     19.902136   18.033840   26.007390 H          1 MOL1         0.3625
@<TRIPOS>BOND
    1     1     2    1
    2     1     3    1
    3     1     4    1
    4     1     5    1
    5     5     6    1
    6     5     7    1
    7     5     8    1
    8     8     9    1
    9     8    10    1
   10     8    11    1
   11    11    12    1
   12    11    13    1
   13    11    14    1
   14    14    15    1
   15    14    16    1
   16    14    17    1
   17    17    18    1
   18    17    19    1
   19    19    20    1
   20    19    21    1
   21    19    22    1
   22    17    23    1
   23    23    24    1
   24    23    25    1
   25    23    26    1
@<TRIPOS>SUBSTRUCTURE
       1 MOL1            1 RESIDUE      1      MOL     
@<SCITEGIC>MOL_PROPERTY
VM2 Rank
SciTegic.value.IntegerValue
17

@<SCITEGIC>MOL_PROPERTY
Conf_Id
SciTegic.value.IntegerValue
270

@<SCITEGIC>MOL_PROPERTY
Probability
SciTegic.value.DoubleValue
1.91

@<SCITEGIC>MOL_PROPERTY
Sum Probability
SciTegic.value.DoubleValue
81.75

@<SCITEGIC>MOL_PROPERTY
Delta G
SciTegic.value.DoubleValue
1.303

@<SCITEGIC>MOL_PROPERTY
G
SciTegic.value.DoubleValue
25.016

@<SCITEGIC>MOL_PROPERTY
E
SciTegic.value.DoubleValue
-7.959

@<SCITEGIC>MOL_PROPERTY
-TS
SciTegic.value.DoubleValue
32.975

@<SCITEGIC>MOL_PROPERTY
U+W
SciTegic.value.DoubleValue
-29.421

@<SCITEGIC>MOL_PROPERTY
U
SciTegic.value.DoubleValue
24.692

@<SCITEGIC>MOL_PROPERTY
W
SciTegic.value.DoubleValue
-54.113

@<SCITEGIC>MOL_PROPERTY
W(PB)
SciTegic.value.DoubleValue
-56.397

@<SCITEGIC>MOL_PROPERTY
W(SA)
SciTegic.value.DoubleValue
2.284

@<SCITEGIC>MOL_PROPERTY
Valence
SciTegic.value.DoubleValue
3.727

@<SCITEGIC>MOL_PROPERTY
Coulomb
SciTegic.value.DoubleValue
19.918

@<SCITEGIC>MOL_PROPERTY
VdW
SciTegic.value.DoubleValue
1.047

@<SCITEGIC>MOL_PROPERTY
VdW6
SciTegic.value.DoubleValue
-8.393

@<SCITEGIC>MOL_PROPERTY
VdW12
SciTegic.value.DoubleValue
9.440

@<SCITEGIC>MOL_PROPERTY
Bond
SciTegic.value.DoubleValue
0.259

@<SCITEGIC>MOL_PROPERTY
Angle
SciTegic.value.DoubleValue
1.567

@<SCITEGIC>MOL_PROPERTY
Pdih
SciTegic.value.DoubleValue
1.900

@<SCITEGIC>MOL_PROPERTY
Idih
SciTegic.value.DoubleValue
0.000

@<SCITEGIC>MOL_PROPERTY
Tether
SciTegic.value.DoubleValue
0.000

@<TRIPOS>MOLECULE
guest-s13_vm2.mol2 : vm2 ligand conformer 18
          26          25           1
SMALL
USER_CHARGES
 
@<TRIPOS>ATOM
       1    C1      20.667240   19.849959   19.671556 C.3        1 MOL1        -0.2398
       2    H1      20.112772   20.512871   18.994700 H          1 MOL1         0.0972
       3    H2      21.490664   20.428502   20.110283 H          1 MOL1         0.0972
       4    H3      21.100617   19.040516   19.069726 H          1 MOL1         0.0972
       5    C2      19.737191   19.289719   20.768380 C.3        1 MOL1        -0.1383
       6    H4      18.908004   18.742379   20.298730 H          1 MOL1         0.0961
       7    H5      19.293144   20.128405   21.320978 H          1 MOL1         0.0961
       8    C3      20.497735   18.354180   21.737358 C.3        1 MOL1        -0.1407
       9    H6      20.991746   17.563786   21.155454 H          1 MOL1         0.0961
      10    H7      21.303288   18.912056   22.232958 H          1 MOL1         0.0961
      11    C4      19.583994   17.682926   22.795310 C.3        1 MOL1        -0.1407
      12    H8      20.190158   17.001376   23.407055 H          1 MOL1         0.0961
      13    H9      18.851081   17.045651   22.281573 H          1 MOL1         0.0961
      14    C5      18.823594   18.668658   23.722336 C.3        1 MOL1        -0.1472
      15    H10     18.080418   19.218676   23.130932 H          1 MOL1         0.0961
      16    H11     18.251114   18.092930   24.461642 H          1 MOL1         0.0961
      17    C6      19.735824   19.677117   24.455339 C.3        1 MOL1         0.1190
      18    H12     20.295715   20.242866   23.704621 H          1 MOL1         0.0923
      19    C7      18.891465   20.668612   25.271305 C.3        1 MOL1        -0.2463
      20    H13     18.192381   21.210979   24.622598 H          1 MOL1         0.0972
      21    H14     19.532038   21.410495   25.763867 H          1 MOL1         0.0972
      22    H15     18.309384   20.152132   26.044806 H          1 MOL1         0.0972
      23    N1      20.750956   18.996829   25.332416 N.4        1 MOL1        -0.5974
      24    H16     21.339924   18.357676   24.791950 H          1 MOL1         0.3625
      25    H17     21.368633   19.675085   25.787124 H          1 MOL1         0.3625
      26    H18     20.299375   18.450358   26.070420 H          1 MOL1         0.3625
@<TRIPOS>BOND
    1     1     2    1
    2     1     3    1
    3     1     4    1
    4     1     5    1
    5     5     6    1
    6     5     7    1
    7     5     8    1
    8     8     9    1
    9     8    10    1
   10     8    11    1
   11    11    12    1
   12    11    13    1
   13    11    14    1
   14    14    15    1
   15    14    16    1
   16    14    17    1
   17    17    18    1
   18    17    19    1
   19    19    20    1
   20    19    21    1
   21    19    22    1
   22    17    23    1
   23    23    24    1
   24    23    25    1
   25    23    26    1
@<TRIPOS>SUBSTRUCTURE
       1 MOL1            1 RESIDUE      1      MOL     
@<SCITEGIC>MOL_PROPERTY
VM2 Rank
SciTegic.value.IntegerValue
18

@<SCITEGIC>MOL_PROPERTY
Conf_Id
SciTegic.value.IntegerValue
182

@<SCITEGIC>MOL_PROPERTY
Probability
SciTegic.value.DoubleValue
1.87

@<SCITEGIC>MOL_PROPERTY
Sum Probability
SciTegic.value.DoubleValue
83.62

@<SCITEGIC>MOL_PROPERTY
Delta G
SciTegic.value.DoubleValue
1.316

@<SCITEGIC>MOL_PROPERTY
G
SciTegic.value.DoubleValue
25.028

@<SCITEGIC>MOL_PROPERTY
E
SciTegic.value.DoubleValue
-7.992

@<SCITEGIC>MOL_PROPERTY
-TS
SciTegic.value.DoubleValue
33.020

@<SCITEGIC>MOL_PROPERTY
U+W
SciTegic.value.DoubleValue
-29.454

@<SCITEGIC>MOL_PROPERTY
U
SciTegic.value.DoubleValue
24.584

@<SCITEGIC>MOL_PROPERTY
W
SciTegic.value.DoubleValue
-54.038

@<SCITEGIC>MOL_PROPERTY
W(PB)
SciTegic.value.DoubleValue
-56.326

@<SCITEGIC>MOL_PROPERTY
W(SA)
SciTegic.value.DoubleValue
2.288

@<SCITEGIC>MOL_PROPERTY
Valence
SciTegic.value.DoubleValue
3.508

@<SCITEGIC>MOL_PROPERTY
Coulomb
SciTegic.value.DoubleValue
20.402

@<SCITEGIC>MOL_PROPERTY
VdW
SciTegic.value.DoubleValue
0.674

@<SCITEGIC>MOL_PROPERTY
VdW6
SciTegic.value.DoubleValue
-8.749

@<SCITEGIC>MOL_PROPERTY
VdW12
SciTegic.value.DoubleValue
9.423

@<SCITEGIC>MOL_PROPERTY
Bond
SciTegic.value.DoubleValue
0.246

@<SCITEGIC>MOL_PROPERTY
Angle
SciTegic.value.DoubleValue
1.409

@<SCITEGIC>MOL_PROPERTY
Pdih
SciTegic.value.DoubleValue
1.854

@<SCITEGIC>MOL_PROPERTY
Idih
SciTegic.value.DoubleValue
0.000

@<SCITEGIC>MOL_PROPERTY
Tether
SciTegic.value.DoubleValue
0.000

@<TRIPOS>MOLECULE
guest-s13_vm2.mol2 : vm2 ligand conformer 19
          26          25           1
SMALL
USER_CHARGES
 
@<TRIPOS>ATOM
       1    C1      20.582961   18.953609   19.088353 C.3        1 MOL1        -0.2398
       2    H1      21.579253   19.069142   18.642160 H          1 MOL1         0.0972
       3    H2      20.144938   18.025652   18.698163 H          1 MOL1         0.0972
       4    H3      19.962457   19.793539   18.749634 H          1 MOL1         0.0972
       5    C2      20.676313   18.919160   20.628616 C.3        1 MOL1        -0.1383
       6    H4      21.156138   19.843556   20.975977 H          1 MOL1         0.0961
       7    H5      21.325963   18.087519   20.935223 H          1 MOL1         0.0961
       8    C3      19.282084   18.761271   21.280415 C.3        1 MOL1        -0.1407
       9    H6      18.650512   19.621276   21.018182 H          1 MOL1         0.0961
      10    H7      18.788894   17.876535   20.854497 H          1 MOL1         0.0961
      11    C4      19.329445   18.601096   22.820062 C.3        1 MOL1        -0.1407
      12    H8      19.956668   17.736235   23.073547 H          1 MOL1         0.0961
      13    H9      18.315509   18.360902   23.164808 H          1 MOL1         0.0961
      14    C5      19.842290   19.869191   23.556310 C.3        1 MOL1        -0.1472
      15    H10     20.867121   20.091926   23.235624 H          1 MOL1         0.0961
      16    H11     19.235940   20.734076   23.256494 H          1 MOL1         0.0961
      17    C6      19.839562   19.770849   25.100425 C.3        1 MOL1         0.1190
      18    H12     20.272186   20.699779   25.484823 H          1 MOL1         0.0923
      19    C7      18.416185   19.651985   25.673123 C.3        1 MOL1        -0.2463
      20    H13     17.774942   20.457897   25.295167 H          1 MOL1         0.0972
      21    H14     18.436168   19.729092   26.767120 H          1 MOL1         0.0972
      22    H15     17.952143   18.692941   25.414700 H          1 MOL1         0.0972
      23    N1      20.719160   18.660838   25.606695 N.4        1 MOL1        -0.5974
      24    H16     20.376122   17.746751   25.301619 H          1 MOL1         0.3625
      25    H17     21.680309   18.758826   25.267609 H          1 MOL1         0.3625
      26    H18     20.755547   18.649332   26.629896 H          1 MOL1         0.3625
@<TRIPOS>BOND
    1     1     2    1
    2     1     3    1
    3     1     4    1
    4     1     5    1
    5     5     6    1
    6     5     7    1
    7     5     8    1
    8     8     9    1
    9     8    10    1
   10     8    11    1
   11    11    12    1
   12    11    13    1
   13    11    14    1
   14    14    15    1
   15    14    16    1
   16    14    17    1
   17    17    18    1
   18    17    19    1
   19    19    20    1
   20    19    21    1
   21    19    22    1
   22    17    23    1
   23    23    24    1
   24    23    25    1
   25    23    26    1
@<TRIPOS>SUBSTRUCTURE
       1 MOL1            1 RESIDUE      1      MOL     
@<SCITEGIC>MOL_PROPERTY
VM2 Rank
SciTegic.value.IntegerValue
19

@<SCITEGIC>MOL_PROPERTY
Conf_Id
SciTegic.value.IntegerValue
533

@<SCITEGIC>MOL_PROPERTY
Probability
SciTegic.value.DoubleValue
1.86

@<SCITEGIC>MOL_PROPERTY
Sum Probability
SciTegic.value.DoubleValue
85.48

@<SCITEGIC>MOL_PROPERTY
Delta G
SciTegic.value.DoubleValue
1.320

@<SCITEGIC>MOL_PROPERTY
G
SciTegic.value.DoubleValue
25.032

@<SCITEGIC>MOL_PROPERTY
E
SciTegic.value.DoubleValue
-7.726

@<SCITEGIC>MOL_PROPERTY
-TS
SciTegic.value.DoubleValue
32.758

@<SCITEGIC>MOL_PROPERTY
U+W
SciTegic.value.DoubleValue
-29.188

@<SCITEGIC>MOL_PROPERTY
U
SciTegic.value.DoubleValue
24.991

@<SCITEGIC>MOL_PROPERTY
W
SciTegic.value.DoubleValue
-54.178

@<SCITEGIC>MOL_PROPERTY
W(PB)
SciTegic.value.DoubleValue
-56.458

@<SCITEGIC>MOL_PROPERTY
W(SA)
SciTegic.value.DoubleValue
2.279

@<SCITEGIC>MOL_PROPERTY
Valence
SciTegic.value.DoubleValue
3.862

@<SCITEGIC>MOL_PROPERTY
Coulomb
SciTegic.value.DoubleValue
19.957

@<SCITEGIC>MOL_PROPERTY
VdW
SciTegic.value.DoubleValue
1.172

@<SCITEGIC>MOL_PROPERTY
VdW6
SciTegic.value.DoubleValue
-8.053

@<SCITEGIC>MOL_PROPERTY
VdW12
SciTegic.value.DoubleValue
9.225

@<SCITEGIC>MOL_PROPERTY
Bond
SciTegic.value.DoubleValue
0.258

@<SCITEGIC>MOL_PROPERTY
Angle
SciTegic.value.DoubleValue
1.499

@<SCITEGIC>MOL_PROPERTY
Pdih
SciTegic.value.DoubleValue
2.106

@<SCITEGIC>MOL_PROPERTY
Idih
SciTegic.value.DoubleValue
0.000

@<SCITEGIC>MOL_PROPERTY
Tether
SciTegic.value.DoubleValue
0.000

@<TRIPOS>MOLECULE
guest-s13_vm2.mol2 : vm2 ligand conformer 20
          26          25           1
SMALL
USER_CHARGES
 
@<TRIPOS>ATOM
       1    C1      20.294851   17.642537   20.325135 C.3        1 MOL1        -0.2398
       2    H1      19.746284   16.941956   19.682404 H          1 MOL1         0.0972
       3    H2      21.320662   17.717664   19.941709 H          1 MOL1         0.0972
       4    H3      20.334212   17.206132   21.330865 H          1 MOL1         0.0972
       5    C2      19.602775   19.024318   20.334000 C.3        1 MOL1        -0.1383
       6    H4      18.587203   18.927523   20.740622 H          1 MOL1         0.0961
       7    H5      19.479353   19.364569   19.296373 H          1 MOL1         0.0961
       8    C3      20.392591   20.104572   21.116185 C.3        1 MOL1        -0.1407
       9    H6      21.357579   20.269669   20.617463 H          1 MOL1         0.0961
      10    H7      19.851611   21.058316   21.046281 H          1 MOL1         0.0961
      11    C4      20.653499   19.780570   22.609812 C.3        1 MOL1        -0.1407
      12    H8      21.226359   20.609479   23.048195 H          1 MOL1         0.0961
      13    H9      21.295588   18.893880   22.685934 H          1 MOL1         0.0961
      14    C5      19.355193   19.575597   23.431255 C.3        1 MOL1        -0.1472
      15    H10     18.690104   20.433145   23.263678 H          1 MOL1         0.0961
      16    H11     18.819459   18.686505   23.075091 H          1 MOL1         0.0961
      17    C6      19.619910   19.438071   24.946034 C.3        1 MOL1         0.1190
      18    H12     20.170013   20.323365   25.279687 H          1 MOL1         0.0923
      19    C7      18.291871   19.376138   25.717445 C.3        1 MOL1        -0.2463
      20    H13     18.472742   19.315791   26.797725 H          1 MOL1         0.0972
      21    H14     17.700394   18.501041   25.420365 H          1 MOL1         0.0972
      22    H15     17.690316   20.274456   25.530695 H          1 MOL1         0.0972
      23    N1      20.477309   18.246198   25.274134 N.4        1 MOL1        -0.5974
      24    H16     20.660742   18.182915   26.279499 H          1 MOL1         0.3625
      25    H17     20.026918   17.372637   24.989178 H          1 MOL1         0.3625
      26    H18     21.383148   18.295805   24.800460 H          1 MOL1         0.3625
@<TRIPOS>BOND
    1     1     2    1
    2     1     3    1
    3     1     4    1
    4     1     5    1
    5     5     6    1
    6     5     7    1
    7     5     8    1
    8     8     9    1
    9     8    10    1
   10     8    11    1
   11    11    12    1
   12    11    13    1
   13    11    14    1
   14    14    15    1
   15    14    16    1
   16    14    17    1
   17    17    18    1
   18    17    19    1
   19    19    20    1
   20    19    21    1
   21    19    22    1
   22    17    23    1
   23    23    24    1
   24    23    25    1
   25    23    26    1
@<TRIPOS>SUBSTRUCTURE
       1 MOL1            1 RESIDUE      1      MOL     
@<SCITEGIC>MOL_PROPERTY
VM2 Rank
SciTegic.value.IntegerValue
20

@<SCITEGIC>MOL_PROPERTY
Conf_Id
SciTegic.value.IntegerValue
490

@<SCITEGIC>MOL_PROPERTY
Probability
SciTegic.value.DoubleValue
1.63

@<SCITEGIC>MOL_PROPERTY
Sum Probability
SciTegic.value.DoubleValue
87.10

@<SCITEGIC>MOL_PROPERTY
Delta G
SciTegic.value.DoubleValue
1.398

@<SCITEGIC>MOL_PROPERTY
G
SciTegic.value.DoubleValue
25.110

@<SCITEGIC>MOL_PROPERTY
E
SciTegic.value.DoubleValue
-7.886

@<SCITEGIC>MOL_PROPERTY
-TS
SciTegic.value.DoubleValue
32.995

@<SCITEGIC>MOL_PROPERTY
U+W
SciTegic.value.DoubleValue
-29.348

@<SCITEGIC>MOL_PROPERTY
U
SciTegic.value.DoubleValue
24.852

@<SCITEGIC>MOL_PROPERTY
W
SciTegic.value.DoubleValue
-54.199

@<SCITEGIC>MOL_PROPERTY
W(PB)
SciTegic.value.DoubleValue
-56.472

@<SCITEGIC>MOL_PROPERTY
W(SA)
SciTegic.value.DoubleValue
2.273

@<SCITEGIC>MOL_PROPERTY
Valence
SciTegic.value.DoubleValue
3.679

@<SCITEGIC>MOL_PROPERTY
Coulomb
SciTegic.value.DoubleValue
20.236

@<SCITEGIC>MOL_PROPERTY
VdW
SciTegic.value.DoubleValue
0.936

@<SCITEGIC>MOL_PROPERTY
VdW6
SciTegic.value.DoubleValue
-8.465

@<SCITEGIC>MOL_PROPERTY
VdW12
SciTegic.value.DoubleValue
9.401

@<SCITEGIC>MOL_PROPERTY
Bond
SciTegic.value.DoubleValue
0.251

@<SCITEGIC>MOL_PROPERTY
Angle
SciTegic.value.DoubleValue
1.471

@<SCITEGIC>MOL_PROPERTY
Pdih
SciTegic.value.DoubleValue
1.958

@<SCITEGIC>MOL_PROPERTY
Idih
SciTegic.value.DoubleValue
0.000

@<SCITEGIC>MOL_PROPERTY
Tether
SciTegic.value.DoubleValue
0.000

@<TRIPOS>MOLECULE
guest-s13_vm2.mol2 : vm2 ligand conformer 21
          26          25           1
SMALL
USER_CHARGES
 
@<TRIPOS>ATOM
       1    C1      19.466715   19.736860   19.671852 C.3        1 MOL1        -0.2398
       2    H1      19.518916   19.764215   18.575744 H          1 MOL1         0.0972
       3    H2      18.507075   19.280700   19.944712 H          1 MOL1         0.0972
       4    H3      19.470926   20.773120   20.033998 H          1 MOL1         0.0972
       5    C2      20.658741   18.940986   20.250179 C.3        1 MOL1        -0.1383
       6    H4      21.592501   19.362961   19.852910 H          1 MOL1         0.0961
       7    H5      20.616179   17.901491   19.896079 H          1 MOL1         0.0961
       8    C3      20.720460   18.966089   21.796270 C.3        1 MOL1        -0.1407
       9    H6      21.649652   18.475026   22.116787 H          1 MOL1         0.0961
      10    H7      20.786691   20.008300   22.135959 H          1 MOL1         0.0961
      11    C4      19.516743   18.260338   22.470075 C.3        1 MOL1        -0.1407
      12    H8      19.410282   17.251075   22.049265 H          1 MOL1         0.0961
      13    H9      18.584844   18.787647   22.230723 H          1 MOL1         0.0961
      14    C5      19.667093   18.138278   24.008458 C.3        1 MOL1        -0.1472
      15    H10     18.787108   17.621390   24.413683 H          1 MOL1         0.0961
      16    H11     20.526427   17.489179   24.222434 H          1 MOL1         0.0961
      17    C6      19.860904   19.479250   24.755286 C.3        1 MOL1         0.1190
      18    H12     20.743278   19.978633   24.344325 H          1 MOL1         0.0923
      19    C7      18.650297   20.414988   24.588274 C.3        1 MOL1        -0.2463
      20    H13     17.726924   19.934954   24.935471 H          1 MOL1         0.0972
      21    H14     18.513739   20.705489   23.540059 H          1 MOL1         0.0972
      22    H15     18.792118   21.337329   25.164825 H          1 MOL1         0.0972
      23    N1      20.147048   19.251212   26.213605 N.4        1 MOL1        -0.5974
      24    H16     19.363333   18.787526   26.680793 H          1 MOL1         0.3625
      25    H17     20.975741   18.664970   26.348500 H          1 MOL1         0.3625
      26    H18     20.315774   20.133830   26.704463 H          1 MOL1         0.3625
@<TRIPOS>BOND
    1     1     2    1
    2     1     3    1
    3     1     4    1
    4     1     5    1
    5     5     6    1
    6     5     7    1
    7     5     8    1
    8     8     9    1
    9     8    10    1
   10     8    11    1
   11    11    12    1
   12    11    13    1
   13    11    14    1
   14    14    15    1
   15    14    16    1
   16    14    17    1
   17    17    18    1
   18    17    19    1
   19    19    20    1
   20    19    21    1
   21    19    22    1
   22    17    23    1
   23    23    24    1
   24    23    25    1
   25    23    26    1
@<TRIPOS>SUBSTRUCTURE
       1 MOL1            1 RESIDUE      1      MOL     
@<SCITEGIC>MOL_PROPERTY
VM2 Rank
SciTegic.value.IntegerValue
21

@<SCITEGIC>MOL_PROPERTY
Conf_Id
SciTegic.value.IntegerValue
152

@<SCITEGIC>MOL_PROPERTY
Probability
SciTegic.value.DoubleValue
1.60

@<SCITEGIC>MOL_PROPERTY
Sum Probability
SciTegic.value.DoubleValue
88.71

@<SCITEGIC>MOL_PROPERTY
Delta G
SciTegic.value.DoubleValue
1.407

@<SCITEGIC>MOL_PROPERTY
G
SciTegic.value.DoubleValue
25.119

@<SCITEGIC>MOL_PROPERTY
E
SciTegic.value.DoubleValue
-7.847

@<SCITEGIC>MOL_PROPERTY
-TS
SciTegic.value.DoubleValue
32.966

@<SCITEGIC>MOL_PROPERTY
U+W
SciTegic.value.DoubleValue
-29.309

@<SCITEGIC>MOL_PROPERTY
U
SciTegic.value.DoubleValue
24.864

@<SCITEGIC>MOL_PROPERTY
W
SciTegic.value.DoubleValue
-54.173

@<SCITEGIC>MOL_PROPERTY
W(PB)
SciTegic.value.DoubleValue
-56.445

@<SCITEGIC>MOL_PROPERTY
W(SA)
SciTegic.value.DoubleValue
2.272

@<SCITEGIC>MOL_PROPERTY
Valence
SciTegic.value.DoubleValue
4.004

@<SCITEGIC>MOL_PROPERTY
Coulomb
SciTegic.value.DoubleValue
19.922

@<SCITEGIC>MOL_PROPERTY
VdW
SciTegic.value.DoubleValue
0.937

@<SCITEGIC>MOL_PROPERTY
VdW6
SciTegic.value.DoubleValue
-8.619

@<SCITEGIC>MOL_PROPERTY
VdW12
SciTegic.value.DoubleValue
9.556

@<SCITEGIC>MOL_PROPERTY
Bond
SciTegic.value.DoubleValue
0.248

@<SCITEGIC>MOL_PROPERTY
Angle
SciTegic.value.DoubleValue
1.605

@<SCITEGIC>MOL_PROPERTY
Pdih
SciTegic.value.DoubleValue
2.151

@<SCITEGIC>MOL_PROPERTY
Idih
SciTegic.value.DoubleValue
0.000

@<SCITEGIC>MOL_PROPERTY
Tether
SciTegic.value.DoubleValue
0.000

@<TRIPOS>MOLECULE
guest-s13_vm2.mol2 : vm2 ligand conformer 22
          26          25           1
SMALL
USER_CHARGES
 
@<TRIPOS>ATOM
       1    C1      20.115602   18.573788   19.346109 C.3        1 MOL1        -0.2398
       2    H1      19.614204   17.648726   19.656138 H          1 MOL1         0.0972
       3    H2      19.347076   19.301503   19.054878 H          1 MOL1         0.0972
       4    H3      20.712543   18.341552   18.454671 H          1 MOL1         0.0972
       5    C2      21.017152   19.136317   20.468505 C.3        1 MOL1        -0.1383
       6    H4      21.591713   19.983238   20.067954 H          1 MOL1         0.0961
       7    H5      21.754966   18.377880   20.765330 H          1 MOL1         0.0961
       8    C3      20.229300   19.616141   21.711494 C.3        1 MOL1        -0.1407
       9    H6      20.935058   20.112728   22.390060 H          1 MOL1         0.0961
      10    H7      19.500251   20.380816   21.409876 H          1 MOL1         0.0961
      11    C4      19.503955   18.469976   22.461492 C.3        1 MOL1        -0.1407
      12    H8      20.226170   17.690680   22.738509 H          1 MOL1         0.0961
      13    H9      18.783153   17.990058   21.786969 H          1 MOL1         0.0961
      14    C5      18.734428   18.952720   23.718089 C.3        1 MOL1        -0.1472
      15    H10     17.958451   19.663898   23.404959 H          1 MOL1         0.0961
      16    H11     18.205641   18.098983   24.162384 H          1 MOL1         0.0961
      17    C6      19.622209   19.617764   24.794155 C.3        1 MOL1         0.1190
      18    H12     20.121879   20.480805   24.344620 H          1 MOL1         0.0923
      19    C7      18.759652   20.120667   25.962604 C.3        1 MOL1        -0.2463
      20    H13     18.006911   20.837209   25.610938 H          1 MOL1         0.0972
      21    H14     19.379013   20.629450   26.711526 H          1 MOL1         0.0972
      22    H15     18.237692   19.291691   26.456807 H          1 MOL1         0.0972
      23    N1      20.705700   18.700625   25.291551 N.4        1 MOL1        -0.5974
      24    H16     20.313394   17.865076   25.733346 H          1 MOL1         0.3625
      25    H17     21.310120   18.390364   24.526006 H          1 MOL1         0.3625
      26    H18     21.300230   19.163850   25.984590 H          1 MOL1         0.3625
@<TRIPOS>BOND
    1     1     2    1
    2     1     3    1
    3     1     4    1
    4     1     5    1
    5     5     6    1
    6     5     7    1
    7     5     8    1
    8     8     9    1
    9     8    10    1
   10     8    11    1
   11    11    12    1
   12    11    13    1
   13    11    14    1
   14    14    15    1
   15    14    16    1
   16    14    17    1
   17    17    18    1
   18    17    19    1
   19    19    20    1
   20    19    21    1
   21    19    22    1
   22    17    23    1
   23    23    24    1
   24    23    25    1
   25    23    26    1
@<TRIPOS>SUBSTRUCTURE
       1 MOL1            1 RESIDUE      1      MOL     
@<SCITEGIC>MOL_PROPERTY
VM2 Rank
SciTegic.value.IntegerValue
22

@<SCITEGIC>MOL_PROPERTY
Conf_Id
SciTegic.value.IntegerValue
672

@<SCITEGIC>MOL_PROPERTY
Probability
SciTegic.value.DoubleValue
1.58

@<SCITEGIC>MOL_PROPERTY
Sum Probability
SciTegic.value.DoubleValue
90.29

@<SCITEGIC>MOL_PROPERTY
Delta G
SciTegic.value.DoubleValue
1.416

@<SCITEGIC>MOL_PROPERTY
G
SciTegic.value.DoubleValue
25.128

@<SCITEGIC>MOL_PROPERTY
E
SciTegic.value.DoubleValue
-7.702

@<SCITEGIC>MOL_PROPERTY
-TS
SciTegic.value.DoubleValue
32.830

@<SCITEGIC>MOL_PROPERTY
U+W
SciTegic.value.DoubleValue
-29.164

@<SCITEGIC>MOL_PROPERTY
U
SciTegic.value.DoubleValue
24.833

@<SCITEGIC>MOL_PROPERTY
W
SciTegic.value.DoubleValue
-53.997

@<SCITEGIC>MOL_PROPERTY
W(PB)
SciTegic.value.DoubleValue
-56.290

@<SCITEGIC>MOL_PROPERTY
W(SA)
SciTegic.value.DoubleValue
2.294

@<SCITEGIC>MOL_PROPERTY
Valence
SciTegic.value.DoubleValue
3.589

@<SCITEGIC>MOL_PROPERTY
Coulomb
SciTegic.value.DoubleValue
20.270

@<SCITEGIC>MOL_PROPERTY
VdW
SciTegic.value.DoubleValue
0.974

@<SCITEGIC>MOL_PROPERTY
VdW6
SciTegic.value.DoubleValue
-8.255

@<SCITEGIC>MOL_PROPERTY
VdW12
SciTegic.value.DoubleValue
9.228

@<SCITEGIC>MOL_PROPERTY
Bond
SciTegic.value.DoubleValue
0.244

@<SCITEGIC>MOL_PROPERTY
Angle
SciTegic.value.DoubleValue
1.377

@<SCITEGIC>MOL_PROPERTY
Pdih
SciTegic.value.DoubleValue
1.967

@<SCITEGIC>MOL_PROPERTY
Idih
SciTegic.value.DoubleValue
0.000

@<SCITEGIC>MOL_PROPERTY
Tether
SciTegic.value.DoubleValue
0.000

@<TRIPOS>MOLECULE
guest-s13_vm2.mol2 : vm2 ligand conformer 23
          26          25           1
SMALL
USER_CHARGES
 
@<TRIPOS>ATOM
       1    C1      21.241035   18.195453   20.073979 C.3        1 MOL1        -0.2398
       2    H1      20.810495   17.262935   20.459292 H          1 MOL1         0.0972
       3    H2      21.533262   18.017041   19.031046 H          1 MOL1         0.0972
       4    H3      22.152519   18.416232   20.644415 H          1 MOL1         0.0972
       5    C2      20.233893   19.364654   20.160332 C.3        1 MOL1        -0.1383
       6    H4      19.321130   19.108430   19.604479 H          1 MOL1         0.0961
       7    H5      20.664696   20.241100   19.656290 H          1 MOL1         0.0961
       8    C3      19.870685   19.755679   21.612894 C.3        1 MOL1        -0.1407
       9    H6      20.787544   20.032627   22.149958 H          1 MOL1         0.0961
      10    H7      19.243414   20.657375   21.584931 H          1 MOL1         0.0961
      11    C4      19.116568   18.639158   22.378425 C.3        1 MOL1        -0.1407
      12    H8      19.757616   17.755506   22.488887 H          1 MOL1         0.0961
      13    H9      18.252333   18.315691   21.782119 H          1 MOL1         0.0961
      14    C5      18.610999   19.092790   23.771878 C.3        1 MOL1        -0.1472
      15    H10     17.885028   19.905649   23.637068 H          1 MOL1         0.0961
      16    H11     18.061114   18.265599   24.240110 H          1 MOL1         0.0961
      17    C6      19.728826   19.569495   24.726407 C.3        1 MOL1         0.1190
      18    H12     20.251220   20.406681   24.254081 H          1 MOL1         0.0923
      19    C7      19.126226   20.066838   26.049887 C.3        1 MOL1        -0.2463
      20    H13     18.592732   19.261941   26.570849 H          1 MOL1         0.0972
      21    H14     18.418853   20.886448   25.872196 H          1 MOL1         0.0972
      22    H15     19.911520   20.443758   26.716665 H          1 MOL1         0.0972
      23    N1      20.759768   18.503933   24.980198 N.4        1 MOL1        -0.5974
      24    H16     21.507210   18.843598   25.592032 H          1 MOL1         0.3625
      25    H17     20.344941   17.683214   25.429202 H          1 MOL1         0.3625
      26    H18     21.193990   18.192424   24.107188 H          1 MOL1         0.3625
@<TRIPOS>BOND
    1     1     2    1
    2     1     3    1
    3     1     4    1
    4     1     5    1
    5     5     6    1
    6     5     7    1
    7     5     8    1
    8     8     9    1
    9     8    10    1
   10     8    11    1
   11    11    12    1
   12    11    13    1
   13    11    14    1
   14    14    15    1
   15    14    16    1
   16    14    17    1
   17    17    18    1
   18    17    19    1
   19    19    20    1
   20    19    21    1
   21    19    22    1
   22    17    23    1
   23    23    24    1
   24    23    25    1
   25    23    26    1
@<TRIPOS>SUBSTRUCTURE
       1 MOL1            1 RESIDUE      1      MOL     
@<SCITEGIC>MOL_PROPERTY
VM2 Rank
SciTegic.value.IntegerValue
23

@<SCITEGIC>MOL_PROPERTY
Conf_Id
SciTegic.value.IntegerValue
1068

@<SCITEGIC>MOL_PROPERTY
Probability
SciTegic.value.DoubleValue
1.46

@<SCITEGIC>MOL_PROPERTY
Sum Probability
SciTegic.value.DoubleValue
91.75

@<SCITEGIC>MOL_PROPERTY
Delta G
SciTegic.value.DoubleValue
1.463

@<SCITEGIC>MOL_PROPERTY
G
SciTegic.value.DoubleValue
25.175

@<SCITEGIC>MOL_PROPERTY
E
SciTegic.value.DoubleValue
-7.697

@<SCITEGIC>MOL_PROPERTY
-TS
SciTegic.value.DoubleValue
32.872

@<SCITEGIC>MOL_PROPERTY
U+W
SciTegic.value.DoubleValue
-29.159

@<SCITEGIC>MOL_PROPERTY
U
SciTegic.value.DoubleValue
24.809

@<SCITEGIC>MOL_PROPERTY
W
SciTegic.value.DoubleValue
-53.968

@<SCITEGIC>MOL_PROPERTY
W(PB)
SciTegic.value.DoubleValue
-56.250

@<SCITEGIC>MOL_PROPERTY
W(SA)
SciTegic.value.DoubleValue
2.282

@<SCITEGIC>MOL_PROPERTY
Valence
SciTegic.value.DoubleValue
3.513

@<SCITEGIC>MOL_PROPERTY
Coulomb
SciTegic.value.DoubleValue
20.422

@<SCITEGIC>MOL_PROPERTY
VdW
SciTegic.value.DoubleValue
0.874

@<SCITEGIC>MOL_PROPERTY
VdW6
SciTegic.value.DoubleValue
-8.372

@<SCITEGIC>MOL_PROPERTY
VdW12
SciTegic.value.DoubleValue
9.246

@<SCITEGIC>MOL_PROPERTY
Bond
SciTegic.value.DoubleValue
0.236

@<SCITEGIC>MOL_PROPERTY
Angle
SciTegic.value.DoubleValue
1.287

@<SCITEGIC>MOL_PROPERTY
Pdih
SciTegic.value.DoubleValue
1.990

@<SCITEGIC>MOL_PROPERTY
Idih
SciTegic.value.DoubleValue
0.000

@<SCITEGIC>MOL_PROPERTY
Tether
SciTegic.value.DoubleValue
0.000

@<TRIPOS>MOLECULE
guest-s13_vm2.mol2 : vm2 ligand conformer 24
          26          25           1
SMALL
USER_CHARGES
 
@<TRIPOS>ATOM
       1    C1      19.081960   18.287200   20.098492 C.3        1 MOL1        -0.2398
       2    H1      18.441124   18.199166   20.984649 H          1 MOL1         0.0972
       3    H2      18.694219   19.101217   19.472411 H          1 MOL1         0.0972
       4    H3      18.989710   17.352778   19.529997 H          1 MOL1         0.0972
       5    C2      20.555863   18.540376   20.488353 C.3        1 MOL1        -0.1383
       6    H4      21.173562   18.501655   19.580266 H          1 MOL1         0.0961
       7    H5      20.914602   17.724649   21.130256 H          1 MOL1         0.0961
       8    C3      20.784051   19.907679   21.181929 C.3        1 MOL1        -0.1407
       9    H6      21.855865   20.021968   21.394837 H          1 MOL1         0.0961
      10    H7      20.530958   20.710771   20.476120 H          1 MOL1         0.0961
      11    C4      19.982975   20.125204   22.491540 C.3        1 MOL1        -0.1407
      12    H8      18.909512   20.133372   22.264669 H          1 MOL1         0.0961
      13    H9      20.219612   21.125150   22.880586 H          1 MOL1         0.0961
      14    C5      20.294360   19.071487   23.585321 C.3        1 MOL1        -0.1472
      15    H10     19.949571   18.080967   23.262236 H          1 MOL1         0.0961
      16    H11     21.383716   19.001416   23.702889 H          1 MOL1         0.0961
      17    C6      19.672167   19.404354   24.960425 C.3        1 MOL1         0.1190
      18    H12     19.993081   20.410373   25.247827 H          1 MOL1         0.0923
      19    C7      18.133574   19.376139   24.921146 C.3        1 MOL1        -0.2463
      20    H13     17.737457   20.149446   24.252939 H          1 MOL1         0.0972
      21    H14     17.718145   19.565897   25.918498 H          1 MOL1         0.0972
      22    H15     17.763082   18.402134   24.578028 H          1 MOL1         0.0972
      23    N1      20.183050   18.475562   26.026795 N.4        1 MOL1        -0.5974
      24    H16     19.921610   17.504892   25.834772 H          1 MOL1         0.3625
      25    H17     21.203833   18.510575   26.100182 H          1 MOL1         0.3625
      26    H18     19.803859   18.717614   26.946614 H          1 MOL1         0.3625
@<TRIPOS>BOND
    1     1     2    1
    2     1     3    1
    3     1     4    1
    4     1     5    1
    5     5     6    1
    6     5     7    1
    7     5     8    1
    8     8     9    1
    9     8    10    1
   10     8    11    1
   11    11    12    1
   12    11    13    1
   13    11    14    1
   14    14    15    1
   15    14    16    1
   16    14    17    1
   17    17    18    1
   18    17    19    1
   19    19    20    1
   20    19    21    1
   21    19    22    1
   22    17    23    1
   23    23    24    1
   24    23    25    1
   25    23    26    1
@<TRIPOS>SUBSTRUCTURE
       1 MOL1            1 RESIDUE      1      MOL     
@<SCITEGIC>MOL_PROPERTY
VM2 Rank
SciTegic.value.IntegerValue
24

@<SCITEGIC>MOL_PROPERTY
Conf_Id
SciTegic.value.IntegerValue
981

@<SCITEGIC>MOL_PROPERTY
Probability
SciTegic.value.DoubleValue
1.19

@<SCITEGIC>MOL_PROPERTY
Sum Probability
SciTegic.value.DoubleValue
92.93

@<SCITEGIC>MOL_PROPERTY
Delta G
SciTegic.value.DoubleValue
1.586

@<SCITEGIC>MOL_PROPERTY
G
SciTegic.value.DoubleValue
25.298

@<SCITEGIC>MOL_PROPERTY
E
SciTegic.value.DoubleValue
-7.724

@<SCITEGIC>MOL_PROPERTY
-TS
SciTegic.value.DoubleValue
33.022

@<SCITEGIC>MOL_PROPERTY
U+W
SciTegic.value.DoubleValue
-29.186

@<SCITEGIC>MOL_PROPERTY
U
SciTegic.value.DoubleValue
25.014

@<SCITEGIC>MOL_PROPERTY
W
SciTegic.value.DoubleValue
-54.200

@<SCITEGIC>MOL_PROPERTY
W(PB)
SciTegic.value.DoubleValue
-56.463

@<SCITEGIC>MOL_PROPERTY
W(SA)
SciTegic.value.DoubleValue
2.263

@<SCITEGIC>MOL_PROPERTY
Valence
SciTegic.value.DoubleValue
4.188

@<SCITEGIC>MOL_PROPERTY
Coulomb
SciTegic.value.DoubleValue
19.774

@<SCITEGIC>MOL_PROPERTY
VdW
SciTegic.value.DoubleValue
1.052

@<SCITEGIC>MOL_PROPERTY
VdW6
SciTegic.value.DoubleValue
-8.654

@<SCITEGIC>MOL_PROPERTY
VdW12
SciTegic.value.DoubleValue
9.706

@<SCITEGIC>MOL_PROPERTY
Bond
SciTegic.value.DoubleValue
0.263

@<SCITEGIC>MOL_PROPERTY
Angle
SciTegic.value.DoubleValue
1.714

@<SCITEGIC>MOL_PROPERTY
Pdih
SciTegic.value.DoubleValue
2.211

@<SCITEGIC>MOL_PROPERTY
Idih
SciTegic.value.DoubleValue
0.000

@<SCITEGIC>MOL_PROPERTY
Tether
SciTegic.value.DoubleValue
0.000

@<TRIPOS>MOLECULE
guest-s13_vm2.mol2 : vm2 ligand conformer 25
          26          25           1
SMALL
USER_CHARGES
 
@<TRIPOS>ATOM
       1    C1      20.060928   18.616827   19.331025 C.3        1 MOL1        -0.2398
       2    H1      20.051116   18.996284   18.301049 H          1 MOL1         0.0972
       3    H2      20.809733   17.816046   19.386305 H          1 MOL1         0.0972
       4    H3      19.074461   18.180303   19.529932 H          1 MOL1         0.0972
       5    C2      20.390218   19.755410   20.323098 C.3        1 MOL1        -0.1383
       6    H4      19.609228   20.526984   20.273372 H          1 MOL1         0.0961
       7    H5      21.322917   20.241686   20.004619 H          1 MOL1         0.0961
       8    C3      20.557383   19.272603   21.784211 C.3        1 MOL1        -0.1407
       9    H6      21.344763   18.507651   21.829558 H          1 MOL1         0.0961
      10    H7      20.914312   20.120674   22.383125 H          1 MOL1         0.0961
      11    C4      19.250075   18.715031   22.402348 C.3        1 MOL1        -0.1407
      12    H8      18.902272   17.857676   21.811837 H          1 MOL1         0.0961
      13    H9      18.455200   19.469469   22.336230 H          1 MOL1         0.0961
      14    C5      19.419433   18.245778   23.870867 C.3        1 MOL1        -0.1472
      15    H10     18.463302   17.840130   24.227285 H          1 MOL1         0.0961
      16    H11     20.129562   17.408493   23.886879 H          1 MOL1         0.0961
      17    C6      19.910803   19.330969   24.858214 C.3        1 MOL1         0.1190
      18    H12     20.868932   19.717426   24.498709 H          1 MOL1         0.0923
      19    C7      18.922014   20.505424   24.966817 C.3        1 MOL1        -0.2463
      20    H13     17.926267   20.159021   25.270299 H          1 MOL1         0.0972
      21    H14     18.825938   21.033960   24.011250 H          1 MOL1         0.0972
      22    H15     19.269012   21.235724   25.708102 H          1 MOL1         0.0972
      23    N1      20.177146   18.745958   26.217419 N.4        1 MOL1        -0.5974
      24    H16     20.865869   17.989370   26.174353 H          1 MOL1         0.3625
      25    H17     20.540788   19.451725   26.864018 H          1 MOL1         0.3625
      26    H18     19.324479   18.361954   26.633326 H          1 MOL1         0.3625
@<TRIPOS>BOND
    1     1     2    1
    2     1     3    1
    3     1     4    1
    4     1     5    1
    5     5     6    1
    6     5     7    1
    7     5     8    1
    8     8     9    1
    9     8    10    1
   10     8    11    1
   11    11    12    1
   12    11    13    1
   13    11    14    1
   14    14    15    1
   15    14    16    1
   16    14    17    1
   17    17    18    1
   18    17    19    1
   19    19    20    1
   20    19    21    1
   21    19    22    1
   22    17    23    1
   23    23    24    1
   24    23    25    1
   25    23    26    1
@<TRIPOS>SUBSTRUCTURE
       1 MOL1            1 RESIDUE      1      MOL     
@<SCITEGIC>MOL_PROPERTY
VM2 Rank
SciTegic.value.IntegerValue
25

@<SCITEGIC>MOL_PROPERTY
Conf_Id
SciTegic.value.IntegerValue
5

@<SCITEGIC>MOL_PROPERTY
Probability
SciTegic.value.DoubleValue
1.14

@<SCITEGIC>MOL_PROPERTY
Sum Probability
SciTegic.value.DoubleValue
94.08

@<SCITEGIC>MOL_PROPERTY
Delta G
SciTegic.value.DoubleValue
1.608

@<SCITEGIC>MOL_PROPERTY
G
SciTegic.value.DoubleValue
25.320

@<SCITEGIC>MOL_PROPERTY
E
SciTegic.value.DoubleValue
-7.603

@<SCITEGIC>MOL_PROPERTY
-TS
SciTegic.value.DoubleValue
32.924

@<SCITEGIC>MOL_PROPERTY
U+W
SciTegic.value.DoubleValue
-29.065

@<SCITEGIC>MOL_PROPERTY
U
SciTegic.value.DoubleValue
25.023

@<SCITEGIC>MOL_PROPERTY
W
SciTegic.value.DoubleValue
-54.088

@<SCITEGIC>MOL_PROPERTY
W(PB)
SciTegic.value.DoubleValue
-56.383

@<SCITEGIC>MOL_PROPERTY
W(SA)
SciTegic.value.DoubleValue
2.296

@<SCITEGIC>MOL_PROPERTY
Valence
SciTegic.value.DoubleValue
4.083

@<SCITEGIC>MOL_PROPERTY
Coulomb
SciTegic.value.DoubleValue
19.893

@<SCITEGIC>MOL_PROPERTY
VdW
SciTegic.value.DoubleValue
1.047

@<SCITEGIC>MOL_PROPERTY
VdW6
SciTegic.value.DoubleValue
-8.479

@<SCITEGIC>MOL_PROPERTY
VdW12
SciTegic.value.DoubleValue
9.527

@<SCITEGIC>MOL_PROPERTY
Bond
SciTegic.value.DoubleValue
0.256

@<SCITEGIC>MOL_PROPERTY
Angle
SciTegic.value.DoubleValue
1.716

@<SCITEGIC>MOL_PROPERTY
Pdih
SciTegic.value.DoubleValue
2.112

@<SCITEGIC>MOL_PROPERTY
Idih
SciTegic.value.DoubleValue
0.000

@<SCITEGIC>MOL_PROPERTY
Tether
SciTegic.value.DoubleValue
0.000

@<TRIPOS>MOLECULE
guest-s13_vm2.mol2 : vm2 ligand conformer 26
          26          25           1
SMALL
USER_CHARGES
 
@<TRIPOS>ATOM
       1    C1      21.168005   19.399775   19.780482 C.3        1 MOL1        -0.2398
       2    H1      22.008061   18.811531   19.388953 H          1 MOL1         0.0972
       3    H2      20.481201   19.601241   18.948061 H          1 MOL1         0.0972
       4    H3      21.565284   20.359439   20.136049 H          1 MOL1         0.0972
       5    C2      20.453925   18.639591   20.918053 C.3        1 MOL1        -0.1383
       6    H4      21.180810   18.421720   21.711788 H          1 MOL1         0.0961
       7    H5      20.094412   17.672144   20.540572 H          1 MOL1         0.0961
       8    C3      19.266900   19.450983   21.488276 C.3        1 MOL1        -0.1407
       9    H6      19.631493   20.402924   21.896756 H          1 MOL1         0.0961
      10    H7      18.587928   19.715709   20.665950 H          1 MOL1         0.0961
      11    C4      18.454710   18.686742   22.565544 C.3        1 MOL1        -0.1407
      12    H8      18.011084   17.790780   22.109931 H          1 MOL1         0.0961
      13    H9      17.605202   19.308518   22.878186 H          1 MOL1         0.0961
      14    C5      19.269062   18.258220   23.815930 C.3        1 MOL1        -0.1472
      15    H10     18.589570   17.788125   24.539108 H          1 MOL1         0.0961
      16    H11     19.979965   17.475091   23.523322 H          1 MOL1         0.0961
      17    C6      20.043361   19.401773   24.512229 C.3        1 MOL1         0.1190
      18    H12     20.703924   19.868551   23.775432 H          1 MOL1         0.0923
      19    C7      19.098185   20.479690   25.072160 C.3        1 MOL1        -0.2463
      20    H13     18.384147   20.049284   25.785253 H          1 MOL1         0.0972
      21    H14     18.530945   20.966902   24.270585 H          1 MOL1         0.0972
      22    H15     19.667130   21.261581   25.590017 H          1 MOL1         0.0972
      23    N1      20.933852   18.871226   25.601327 N.4        1 MOL1        -0.5974
      24    H16     21.476993   19.620843   26.038932 H          1 MOL1         0.3625
      25    H17     20.390811   18.417066   26.340473 H          1 MOL1         0.3625
      26    H18     21.600666   18.182178   25.242098 H          1 MOL1         0.3625
@<TRIPOS>BOND
    1     1     2    1
    2     1     3    1
    3     1     4    1
    4     1     5    1
    5     5     6    1
    6     5     7    1
    7     5     8    1
    8     8     9    1
    9     8    10    1
   10     8    11    1
   11    11    12    1
   12    11    13    1
   13    11    14    1
   14    14    15    1
   15    14    16    1
   16    14    17    1
   17    17    18    1
   18    17    19    1
   19    19    20    1
   20    19    21    1
   21    19    22    1
   22    17    23    1
   23    23    24    1
   24    23    25    1
   25    23    26    1
@<TRIPOS>SUBSTRUCTURE
       1 MOL1            1 RESIDUE      1      MOL     
@<SCITEGIC>MOL_PROPERTY
VM2 Rank
SciTegic.value.IntegerValue
26

@<SCITEGIC>MOL_PROPERTY
Conf_Id
SciTegic.value.IntegerValue
164

@<SCITEGIC>MOL_PROPERTY
Probability
SciTegic.value.DoubleValue
1.06

@<SCITEGIC>MOL_PROPERTY
Sum Probability
SciTegic.value.DoubleValue
95.14

@<SCITEGIC>MOL_PROPERTY
Delta G
SciTegic.value.DoubleValue
1.653

@<SCITEGIC>MOL_PROPERTY
G
SciTegic.value.DoubleValue
25.365

@<SCITEGIC>MOL_PROPERTY
E
SciTegic.value.DoubleValue
-7.775

@<SCITEGIC>MOL_PROPERTY
-TS
SciTegic.value.DoubleValue
33.140

@<SCITEGIC>MOL_PROPERTY
U+W
SciTegic.value.DoubleValue
-29.236

@<SCITEGIC>MOL_PROPERTY
U
SciTegic.value.DoubleValue
25.091

@<SCITEGIC>MOL_PROPERTY
W
SciTegic.value.DoubleValue
-54.328

@<SCITEGIC>MOL_PROPERTY
W(PB)
SciTegic.value.DoubleValue
-56.621

@<SCITEGIC>MOL_PROPERTY
W(SA)
SciTegic.value.DoubleValue
2.294

@<SCITEGIC>MOL_PROPERTY
Valence
SciTegic.value.DoubleValue
3.982

@<SCITEGIC>MOL_PROPERTY
Coulomb
SciTegic.value.DoubleValue
20.360

@<SCITEGIC>MOL_PROPERTY
VdW
SciTegic.value.DoubleValue
0.750

@<SCITEGIC>MOL_PROPERTY
VdW6
SciTegic.value.DoubleValue
-8.971

@<SCITEGIC>MOL_PROPERTY
VdW12
SciTegic.value.DoubleValue
9.720

@<SCITEGIC>MOL_PROPERTY
Bond
SciTegic.value.DoubleValue
0.256

@<SCITEGIC>MOL_PROPERTY
Angle
SciTegic.value.DoubleValue
1.694

@<SCITEGIC>MOL_PROPERTY
Pdih
SciTegic.value.DoubleValue
2.032

@<SCITEGIC>MOL_PROPERTY
Idih
SciTegic.value.DoubleValue
0.000

@<SCITEGIC>MOL_PROPERTY
Tether
SciTegic.value.DoubleValue
0.000

@<TRIPOS>MOLECULE
guest-s13_vm2.mol2 : vm2 ligand conformer 27
          26          25           1
SMALL
USER_CHARGES
 
@<TRIPOS>ATOM
       1    C1      19.030109   19.323247   19.975105 C.3        1 MOL1        -0.2398
       2    H1      18.710509   18.331823   19.628880 H          1 MOL1         0.0972
       3    H2      18.382846   19.621966   20.809076 H          1 MOL1         0.0972
       4    H3      18.863508   20.035064   19.156326 H          1 MOL1         0.0972
       5    C2      20.519028   19.313375   20.389255 C.3        1 MOL1        -0.1383
       6    H4      20.809677   20.308652   20.751104 H          1 MOL1         0.0961
       7    H5      21.132991   19.127952   19.496880 H          1 MOL1         0.0961
       8    C3      20.856828   18.236601   21.451969 C.3        1 MOL1        -0.1407
       9    H6      20.677679   17.242932   21.018725 H          1 MOL1         0.0961
      10    H7      21.932928   18.279439   21.669518 H          1 MOL1         0.0961
      11    C4      20.068052   18.347772   22.782343 C.3        1 MOL1        -0.1407
      12    H8      20.382388   17.521368   23.432900 H          1 MOL1         0.0961
      13    H9      18.999800   18.190897   22.586959 H          1 MOL1         0.0961
      14    C5      20.287592   19.698590   23.516487 C.3        1 MOL1        -0.1472
      15    H10     21.364909   19.880003   23.624338 H          1 MOL1         0.0961
      16    H11     19.901310   20.520074   22.900208 H          1 MOL1         0.0961
      17    C6      19.631344   19.792466   24.914183 C.3        1 MOL1         0.1190
      18    H12     19.874103   20.778970   25.321240 H          1 MOL1         0.0923
      19    C7      18.098207   19.684118   24.840277 C.3        1 MOL1        -0.2463
      20    H13     17.651568   19.888392   25.821061 H          1 MOL1         0.0972
      21    H14     17.776968   18.683343   24.528021 H          1 MOL1         0.0972
      22    H15     17.689542   20.413847   24.130308 H          1 MOL1         0.0972
      23    N1      20.196840   18.791832   25.884382 N.4        1 MOL1        -0.5974
      24    H16     21.212697   18.885993   25.971521 H          1 MOL1         0.3625
      25    H17     19.797538   18.910671   26.819690 H          1 MOL1         0.3625
      26    H18     20.000534   17.833173   25.586758 H          1 MOL1         0.3625
@<TRIPOS>BOND
    1     1     2    1
    2     1     3    1
    3     1     4    1
    4     1     5    1
    5     5     6    1
    6     5     7    1
    7     5     8    1
    8     8     9    1
    9     8    10    1
   10     8    11    1
   11    11    12    1
   12    11    13    1
   13    11    14    1
   14    14    15    1
   15    14    16    1
   16    14    17    1
   17    17    18    1
   18    17    19    1
   19    19    20    1
   20    19    21    1
   21    19    22    1
   22    17    23    1
   23    23    24    1
   24    23    25    1
   25    23    26    1
@<TRIPOS>SUBSTRUCTURE
       1 MOL1            1 RESIDUE      1      MOL     
@<SCITEGIC>MOL_PROPERTY
VM2 Rank
SciTegic.value.IntegerValue
27

@<SCITEGIC>MOL_PROPERTY
Conf_Id
SciTegic.value.IntegerValue
568

@<SCITEGIC>MOL_PROPERTY
Probability
SciTegic.value.DoubleValue
0.85

@<SCITEGIC>MOL_PROPERTY
Sum Probability
SciTegic.value.DoubleValue
95.99

@<SCITEGIC>MOL_PROPERTY
Delta G
SciTegic.value.DoubleValue
1.788

@<SCITEGIC>MOL_PROPERTY
G
SciTegic.value.DoubleValue
25.500

@<SCITEGIC>MOL_PROPERTY
E
SciTegic.value.DoubleValue
-7.650

@<SCITEGIC>MOL_PROPERTY
-TS
SciTegic.value.DoubleValue
33.151

@<SCITEGIC>MOL_PROPERTY
U+W
SciTegic.value.DoubleValue
-29.112

@<SCITEGIC>MOL_PROPERTY
U
SciTegic.value.DoubleValue
25.100

@<SCITEGIC>MOL_PROPERTY
W
SciTegic.value.DoubleValue
-54.212

@<SCITEGIC>MOL_PROPERTY
W(PB)
SciTegic.value.DoubleValue
-56.442

@<SCITEGIC>MOL_PROPERTY
W(SA)
SciTegic.value.DoubleValue
2.229

@<SCITEGIC>MOL_PROPERTY
Valence
SciTegic.value.DoubleValue
4.185

@<SCITEGIC>MOL_PROPERTY
Coulomb
SciTegic.value.DoubleValue
19.843

@<SCITEGIC>MOL_PROPERTY
VdW
SciTegic.value.DoubleValue
1.072

@<SCITEGIC>MOL_PROPERTY
VdW6
SciTegic.value.DoubleValue
-9.125

@<SCITEGIC>MOL_PROPERTY
VdW12
SciTegic.value.DoubleValue
10.197

@<SCITEGIC>MOL_PROPERTY
Bond
SciTegic.value.DoubleValue
0.294

@<SCITEGIC>MOL_PROPERTY
Angle
SciTegic.value.DoubleValue
1.814

@<SCITEGIC>MOL_PROPERTY
Pdih
SciTegic.value.DoubleValue
2.077

@<SCITEGIC>MOL_PROPERTY
Idih
SciTegic.value.DoubleValue
0.000

@<SCITEGIC>MOL_PROPERTY
Tether
SciTegic.value.DoubleValue
0.000

@<TRIPOS>MOLECULE
guest-s13_vm2.mol2 : vm2 ligand conformer 28
          26          25           1
SMALL
USER_CHARGES
 
@<TRIPOS>ATOM
       1    C1      21.308896   19.239327   20.127781 C.3        1 MOL1        -0.2398
       2    H1      22.091576   18.700505   19.578296 H          1 MOL1         0.0972
       3    H2      21.005214   20.102048   19.520783 H          1 MOL1         0.0972
       4    H3      21.755772   19.612572   21.057650 H          1 MOL1         0.0972
       5    C2      20.107767   18.308959   20.410556 C.3        1 MOL1        -0.1383
       6    H4      20.430603   17.465761   21.035501 H          1 MOL1         0.0961
       7    H5      19.772863   17.866405   19.462042 H          1 MOL1         0.0961
       8    C3      18.905078   19.034957   21.066139 C.3        1 MOL1        -0.1407
       9    H6      18.515511   19.780264   20.359058 H          1 MOL1         0.0961
      10    H7      18.092838   18.310256   21.215316 H          1 MOL1         0.0961
      11    C4      19.204377   19.741580   22.414111 C.3        1 MOL1        -0.1407
      12    H8      18.282635   20.240056   22.739837 H          1 MOL1         0.0961
      13    H9      19.943018   20.539789   22.262572 H          1 MOL1         0.0961
      14    C5      19.694968   18.776886   23.524952 C.3        1 MOL1        -0.1472
      15    H10     18.949274   17.987340   23.686672 H          1 MOL1         0.0961
      16    H11     20.609815   18.277584   23.183441 H          1 MOL1         0.0961
      17    C6      20.009058   19.479376   24.866017 C.3        1 MOL1         0.1190
      18    H12     20.705986   20.299746   24.668637 H          1 MOL1         0.0923
      19    C7      18.747242   20.059994   25.529967 C.3        1 MOL1        -0.2463
      20    H13     17.987862   19.283686   25.686040 H          1 MOL1         0.0972
      21    H14     18.304952   20.856625   24.921101 H          1 MOL1         0.0972
      22    H15     18.991173   20.497515   26.505878 H          1 MOL1         0.0972
      23    N1      20.710615   18.546920   25.814478 N.4        1 MOL1        -0.5974
      24    H16     21.578693   18.181965   25.412215 H          1 MOL1         0.3625
      25    H17     20.955954   19.018530   26.689603 H          1 MOL1         0.3625
      26    H18     20.121922   17.744936   26.054837 H          1 MOL1         0.3625
@<TRIPOS>BOND
    1     1     2    1
    2     1     3    1
    3     1     4    1
    4     1     5    1
    5     5     6    1
    6     5     7    1
    7     5     8    1
    8     8     9    1
    9     8    10    1
   10     8    11    1
   11    11    12    1
   12    11    13    1
   13    11    14    1
   14    14    15    1
   15    14    16    1
   16    14    17    1
   17    17    18    1
   18    17    19    1
   19    19    20    1
   20    19    21    1
   21    19    22    1
   22    17    23    1
   23    23    24    1
   24    23    25    1
   25    23    26    1
@<TRIPOS>SUBSTRUCTURE
       1 MOL1            1 RESIDUE      1      MOL     
@<SCITEGIC>MOL_PROPERTY
VM2 Rank
SciTegic.value.IntegerValue
28

@<SCITEGIC>MOL_PROPERTY
Conf_Id
SciTegic.value.IntegerValue
279

@<SCITEGIC>MOL_PROPERTY
Probability
SciTegic.value.DoubleValue
0.77

@<SCITEGIC>MOL_PROPERTY
Sum Probability
SciTegic.value.DoubleValue
96.75

@<SCITEGIC>MOL_PROPERTY
Delta G
SciTegic.value.DoubleValue
1.846

@<SCITEGIC>MOL_PROPERTY
G
SciTegic.value.DoubleValue
25.558

@<SCITEGIC>MOL_PROPERTY
E
SciTegic.value.DoubleValue
-7.393

@<SCITEGIC>MOL_PROPERTY
-TS
SciTegic.value.DoubleValue
32.951

@<SCITEGIC>MOL_PROPERTY
U+W
SciTegic.value.DoubleValue
-28.854

@<SCITEGIC>MOL_PROPERTY
U
SciTegic.value.DoubleValue
25.366

@<SCITEGIC>MOL_PROPERTY
W
SciTegic.value.DoubleValue
-54.220

@<SCITEGIC>MOL_PROPERTY
W(PB)
SciTegic.value.DoubleValue
-56.490

@<SCITEGIC>MOL_PROPERTY
W(SA)
SciTegic.value.DoubleValue
2.270

@<SCITEGIC>MOL_PROPERTY
Valence
SciTegic.value.DoubleValue
4.329

@<SCITEGIC>MOL_PROPERTY
Coulomb
SciTegic.value.DoubleValue
19.841

@<SCITEGIC>MOL_PROPERTY
VdW
SciTegic.value.DoubleValue
1.196

@<SCITEGIC>MOL_PROPERTY
VdW6
SciTegic.value.DoubleValue
-8.514

@<SCITEGIC>MOL_PROPERTY
VdW12
SciTegic.value.DoubleValue
9.710

@<SCITEGIC>MOL_PROPERTY
Bond
SciTegic.value.DoubleValue
0.275

@<SCITEGIC>MOL_PROPERTY
Angle
SciTegic.value.DoubleValue
1.895

@<SCITEGIC>MOL_PROPERTY
Pdih
SciTegic.value.DoubleValue
2.159

@<SCITEGIC>MOL_PROPERTY
Idih
SciTegic.value.DoubleValue
0.000

@<SCITEGIC>MOL_PROPERTY
Tether
SciTegic.value.DoubleValue
0.000

@<TRIPOS>MOLECULE
guest-s13_vm2.mol2 : vm2 ligand conformer 29
          26          25           1
SMALL
USER_CHARGES
 
@<TRIPOS>ATOM
       1    C1      19.526267   19.232527   19.786211 C.3        1 MOL1        -0.2398
       2    H1      19.246518   20.042887   19.100725 H          1 MOL1         0.0972
       3    H2      20.017215   18.447785   19.196218 H          1 MOL1         0.0972
       4    H3      18.600307   18.819169   20.204850 H          1 MOL1         0.0972
       5    C2      20.463432   19.760966   20.895532 C.3        1 MOL1        -0.1383
       6    H4      19.947104   20.534744   21.479247 H          1 MOL1         0.0961
       7    H5      21.321089   20.261406   20.424747 H          1 MOL1         0.0961
       8    C3      20.995312   18.646938   21.832517 C.3        1 MOL1        -0.1407
       9    H6      21.591290   17.939930   21.239109 H          1 MOL1         0.0961
      10    H7      21.696290   19.092776   22.550645 H          1 MOL1         0.0961
      11    C4      19.903045   17.852976   22.598774 C.3        1 MOL1        -0.1407
      12    H8      20.392229   17.104361   23.236115 H          1 MOL1         0.0961
      13    H9      19.302942   17.275467   21.883069 H          1 MOL1         0.0961
      14    C5      18.952344   18.722908   23.463565 C.3        1 MOL1        -0.1472
      15    H10     18.339378   19.349956   22.803484 H          1 MOL1         0.0961
      16    H11     18.248973   18.065999   23.992146 H          1 MOL1         0.0961
      17    C6      19.678968   19.623332   24.486984 C.3        1 MOL1         0.1190
      18    H12     20.375607   20.268511   23.943412 H          1 MOL1         0.0923
      19    C7      18.670521   20.519249   25.223290 C.3        1 MOL1        -0.2463
      20    H13     18.114894   21.145087   24.513843 H          1 MOL1         0.0972
      21    H14     19.184848   21.187714   25.924686 H          1 MOL1         0.0972
      22    H15     17.946845   19.920202   25.790125 H          1 MOL1         0.0972
      23    N1      20.498110   18.829104   25.467127 N.4        1 MOL1        -0.5974
      24    H16     19.910033   18.202643   26.022902 H          1 MOL1         0.3625
      25    H17     21.195157   18.253132   24.987713 H          1 MOL1         0.3625
      26    H18     20.998489   19.439417   26.119375 H          1 MOL1         0.3625
@<TRIPOS>BOND
    1     1     2    1
    2     1     3    1
    3     1     4    1
    4     1     5    1
    5     5     6    1
    6     5     7    1
    7     5     8    1
    8     8     9    1
    9     8    10    1
   10     8    11    1
   11    11    12    1
   12    11    13    1
   13    11    14    1
   14    14    15    1
   15    14    16    1
   16    14    17    1
   17    17    18    1
   18    17    19    1
   19    19    20    1
   20    19    21    1
   21    19    22    1
   22    17    23    1
   23    23    24    1
   24    23    25    1
   25    23    26    1
@<TRIPOS>SUBSTRUCTURE
       1 MOL1            1 RESIDUE      1      MOL     
@<SCITEGIC>MOL_PROPERTY
VM2 Rank
SciTegic.value.IntegerValue
29

@<SCITEGIC>MOL_PROPERTY
Conf_Id
SciTegic.value.IntegerValue
237

@<SCITEGIC>MOL_PROPERTY
Probability
SciTegic.value.DoubleValue
0.72

@<SCITEGIC>MOL_PROPERTY
Sum Probability
SciTegic.value.DoubleValue
97.48

@<SCITEGIC>MOL_PROPERTY
Delta G
SciTegic.value.DoubleValue
1.883

@<SCITEGIC>MOL_PROPERTY
G
SciTegic.value.DoubleValue
25.595

@<SCITEGIC>MOL_PROPERTY
E
SciTegic.value.DoubleValue
-7.748

@<SCITEGIC>MOL_PROPERTY
-TS
SciTegic.value.DoubleValue
33.343

@<SCITEGIC>MOL_PROPERTY
U+W
SciTegic.value.DoubleValue
-29.210

@<SCITEGIC>MOL_PROPERTY
U
SciTegic.value.DoubleValue
24.974

@<SCITEGIC>MOL_PROPERTY
W
SciTegic.value.DoubleValue
-54.184

@<SCITEGIC>MOL_PROPERTY
W(PB)
SciTegic.value.DoubleValue
-56.449

@<SCITEGIC>MOL_PROPERTY
W(SA)
SciTegic.value.DoubleValue
2.265

@<SCITEGIC>MOL_PROPERTY
Valence
SciTegic.value.DoubleValue
3.932

@<SCITEGIC>MOL_PROPERTY
Coulomb
SciTegic.value.DoubleValue
20.395

@<SCITEGIC>MOL_PROPERTY
VdW
SciTegic.value.DoubleValue
0.646

@<SCITEGIC>MOL_PROPERTY
VdW6
SciTegic.value.DoubleValue
-9.633

@<SCITEGIC>MOL_PROPERTY
VdW12
SciTegic.value.DoubleValue
10.279

@<SCITEGIC>MOL_PROPERTY
Bond
SciTegic.value.DoubleValue
0.286

@<SCITEGIC>MOL_PROPERTY
Angle
SciTegic.value.DoubleValue
1.718

@<SCITEGIC>MOL_PROPERTY
Pdih
SciTegic.value.DoubleValue
1.928

@<SCITEGIC>MOL_PROPERTY
Idih
SciTegic.value.DoubleValue
0.000

@<SCITEGIC>MOL_PROPERTY
Tether
SciTegic.value.DoubleValue
0.000

@<TRIPOS>MOLECULE
guest-s13_vm2.mol2 : vm2 ligand conformer 30
          26          25           1
SMALL
USER_CHARGES
 
@<TRIPOS>ATOM
       1    C1      21.196913   18.189110   20.363623 C.3        1 MOL1        -0.2398
       2    H1      21.560512   17.969714   21.375105 H          1 MOL1         0.0972
       3    H2      20.667023   17.304084   19.988277 H          1 MOL1         0.0972
       4    H3      22.074891   18.351153   19.725086 H          1 MOL1         0.0972
       5    C2      20.279994   19.433045   20.348922 C.3        1 MOL1        -0.1383
       6    H4      20.041968   19.684179   19.305876 H          1 MOL1         0.0961
       7    H5      20.823894   20.299419   20.748179 H          1 MOL1         0.0961
       8    C3      18.951517   19.230036   21.121564 C.3        1 MOL1        -0.1407
       9    H6      18.352435   20.147658   21.042691 H          1 MOL1         0.0961
      10    H7      18.367224   18.446520   20.619679 H          1 MOL1         0.0961
      11    C4      19.102740   18.853261   22.618267 C.3        1 MOL1        -0.1407
      12    H8      19.605437   17.881693   22.703522 H          1 MOL1         0.0961
      13    H9      18.095592   18.711253   23.030515 H          1 MOL1         0.0961
      14    C5      19.859053   19.924687   23.450421 C.3        1 MOL1        -0.1472
      15    H10     20.874565   20.046971   23.054371 H          1 MOL1         0.0961
      16    H11     19.365189   20.897287   23.325460 H          1 MOL1         0.0961
      17    C6      19.973470   19.613941   24.961679 C.3        1 MOL1         0.1190
      18    H12     20.567613   20.414705   25.412885 H          1 MOL1         0.0923
      19    C7      18.601881   19.606349   25.659305 C.3        1 MOL1        -0.2463
      20    H13     17.983298   18.762583   25.331730 H          1 MOL1         0.0972
      21    H14     18.054672   20.534779   25.454102 H          1 MOL1         0.0972
      22    H15     18.725774   19.527302   26.746301 H          1 MOL1         0.0972
      23    N1      20.722432   18.337571   25.230220 N.4        1 MOL1        -0.5974
      24    H16     21.655552   18.354107   24.809143 H          1 MOL1         0.3625
      25    H17     20.842792   18.178918   26.234584 H          1 MOL1         0.3625
      26    H18     20.225724   17.528679   24.849120 H          1 MOL1         0.3625
@<TRIPOS>BOND
    1     1     2    1
    2     1     3    1
    3     1     4    1
    4     1     5    1
    5     5     6    1
    6     5     7    1
    7     5     8    1
    8     8     9    1
    9     8    10    1
   10     8    11    1
   11    11    12    1
   12    11    13    1
   13    11    14    1
   14    14    15    1
   15    14    16    1
   16    14    17    1
   17    17    18    1
   18    17    19    1
   19    19    20    1
   20    19    21    1
   21    19    22    1
   22    17    23    1
   23    23    24    1
   24    23    25    1
   25    23    26    1
@<TRIPOS>SUBSTRUCTURE
       1 MOL1            1 RESIDUE      1      MOL     
@<SCITEGIC>MOL_PROPERTY
VM2 Rank
SciTegic.value.IntegerValue
30

@<SCITEGIC>MOL_PROPERTY
Conf_Id
SciTegic.value.IntegerValue
462

@<SCITEGIC>MOL_PROPERTY
Probability
SciTegic.value.DoubleValue
0.49

@<SCITEGIC>MOL_PROPERTY
Sum Probability
SciTegic.value.DoubleValue
97.97

@<SCITEGIC>MOL_PROPERTY
Delta G
SciTegic.value.DoubleValue
2.110

@<SCITEGIC>MOL_PROPERTY
G
SciTegic.value.DoubleValue
25.822

@<SCITEGIC>MOL_PROPERTY
E
SciTegic.value.DoubleValue
-7.287

@<SCITEGIC>MOL_PROPERTY
-TS
SciTegic.value.DoubleValue
33.109

@<SCITEGIC>MOL_PROPERTY
U+W
SciTegic.value.DoubleValue
-28.749

@<SCITEGIC>MOL_PROPERTY
U
SciTegic.value.DoubleValue
25.589

@<SCITEGIC>MOL_PROPERTY
W
SciTegic.value.DoubleValue
-54.338

@<SCITEGIC>MOL_PROPERTY
W(PB)
SciTegic.value.DoubleValue
-56.600

@<SCITEGIC>MOL_PROPERTY
W(SA)
SciTegic.value.DoubleValue
2.262

@<SCITEGIC>MOL_PROPERTY
Valence
SciTegic.value.DoubleValue
4.268

@<SCITEGIC>MOL_PROPERTY
Coulomb
SciTegic.value.DoubleValue
20.217

@<SCITEGIC>MOL_PROPERTY
VdW
SciTegic.value.DoubleValue
1.104

@<SCITEGIC>MOL_PROPERTY
VdW6
SciTegic.value.DoubleValue
-9.052

@<SCITEGIC>MOL_PROPERTY
VdW12
SciTegic.value.DoubleValue
10.157

@<SCITEGIC>MOL_PROPERTY
Bond
SciTegic.value.DoubleValue
0.298

@<SCITEGIC>MOL_PROPERTY
Angle
SciTegic.value.DoubleValue
1.891

@<SCITEGIC>MOL_PROPERTY
Pdih
SciTegic.value.DoubleValue
2.079

@<SCITEGIC>MOL_PROPERTY
Idih
SciTegic.value.DoubleValue
0.000

@<SCITEGIC>MOL_PROPERTY
Tether
SciTegic.value.DoubleValue
0.000

@<TRIPOS>MOLECULE
guest-s13_vm2.mol2 : vm2 ligand conformer 31
          26          25           1
SMALL
USER_CHARGES
 
@<TRIPOS>ATOM
       1    C1      20.536848   18.209343   19.994819 C.3        1 MOL1        -0.2398
       2    H1      21.455842   17.792755   19.562694 H          1 MOL1         0.0972
       3    H2      20.002273   17.388619   20.488941 H          1 MOL1         0.0972
       4    H3      19.914152   18.577482   19.169191 H          1 MOL1         0.0972
       5    C2      20.871791   19.345977   20.986767 C.3        1 MOL1        -0.1383
       6    H4      21.498872   20.088797   20.474292 H          1 MOL1         0.0961
       7    H5      21.483722   18.951611   21.808923 H          1 MOL1         0.0961
       8    C3      19.616546   20.061772   21.547007 C.3        1 MOL1        -0.1407
       9    H6      19.938307   20.890411   22.191899 H          1 MOL1         0.0961
      10    H7      19.074276   20.529967   20.714033 H          1 MOL1         0.0961
      11    C4      18.632552   19.150852   22.329332 C.3        1 MOL1        -0.1407
      12    H8      18.187070   18.420064   21.641390 H          1 MOL1         0.0961
      13    H9      17.791610   19.761188   22.684330 H          1 MOL1         0.0961
      14    C5      19.262049   18.391974   23.528227 C.3        1 MOL1        -0.1472
      15    H10     18.475861   17.824584   24.043544 H          1 MOL1         0.0961
      16    H11     19.965393   17.643676   23.141388 H          1 MOL1         0.0961
      17    C6      19.998578   19.288639   24.550667 C.3        1 MOL1         0.1190
      18    H12     20.763836   19.860948   24.017911 H          1 MOL1         0.0923
      19    C7      19.043817   20.277658   25.242788 C.3        1 MOL1        -0.2463
      20    H13     18.229040   19.750240   25.754218 H          1 MOL1         0.0972
      21    H14     18.601748   20.974882   24.521645 H          1 MOL1         0.0972
      22    H15     19.581550   20.877213   25.987501 H          1 MOL1         0.0972
      23    N1      20.725818   18.461784   25.574393 N.4        1 MOL1        -0.5974
      24    H16     21.246553   19.051176   26.230033 H          1 MOL1         0.3625
      25    H17     20.077112   17.893066   26.125042 H          1 MOL1         0.3625
      26    H18     21.398176   17.825103   25.137326 H          1 MOL1         0.3625
@<TRIPOS>BOND
    1     1     2    1
    2     1     3    1
    3     1     4    1
    4     1     5    1
    5     5     6    1
    6     5     7    1
    7     5     8    1
    8     8     9    1
    9     8    10    1
   10     8    11    1
   11    11    12    1
   12    11    13    1
   13    11    14    1
   14    14    15    1
   15    14    16    1
   16    14    17    1
   17    17    18    1
   18    17    19    1
   19    19    20    1
   20    19    21    1
   21    19    22    1
   22    17    23    1
   23    23    24    1
   24    23    25    1
   25    23    26    1
@<TRIPOS>SUBSTRUCTURE
       1 MOL1            1 RESIDUE      1      MOL     
@<SCITEGIC>MOL_PROPERTY
VM2 Rank
SciTegic.value.IntegerValue
31

@<SCITEGIC>MOL_PROPERTY
Conf_Id
SciTegic.value.IntegerValue
228

@<SCITEGIC>MOL_PROPERTY
Probability
SciTegic.value.DoubleValue
0.40

@<SCITEGIC>MOL_PROPERTY
Sum Probability
SciTegic.value.DoubleValue
98.37

@<SCITEGIC>MOL_PROPERTY
Delta G
SciTegic.value.DoubleValue
2.233

@<SCITEGIC>MOL_PROPERTY
G
SciTegic.value.DoubleValue
25.945

@<SCITEGIC>MOL_PROPERTY
E
SciTegic.value.DoubleValue
-7.505

@<SCITEGIC>MOL_PROPERTY
-TS
SciTegic.value.DoubleValue
33.450

@<SCITEGIC>MOL_PROPERTY
U+W
SciTegic.value.DoubleValue
-28.967

@<SCITEGIC>MOL_PROPERTY
U
SciTegic.value.DoubleValue
25.506

@<SCITEGIC>MOL_PROPERTY
W
SciTegic.value.DoubleValue
-54.473

@<SCITEGIC>MOL_PROPERTY
W(PB)
SciTegic.value.DoubleValue
-56.692

@<SCITEGIC>MOL_PROPERTY
W(SA)
SciTegic.value.DoubleValue
2.218

@<SCITEGIC>MOL_PROPERTY
Valence
SciTegic.value.DoubleValue
4.414

@<SCITEGIC>MOL_PROPERTY
Coulomb
SciTegic.value.DoubleValue
20.363

@<SCITEGIC>MOL_PROPERTY
VdW
SciTegic.value.DoubleValue
0.729

@<SCITEGIC>MOL_PROPERTY
VdW6
SciTegic.value.DoubleValue
-9.838

@<SCITEGIC>MOL_PROPERTY
VdW12
SciTegic.value.DoubleValue
10.567

@<SCITEGIC>MOL_PROPERTY
Bond
SciTegic.value.DoubleValue
0.296

@<SCITEGIC>MOL_PROPERTY
Angle
SciTegic.value.DoubleValue
2.006

@<SCITEGIC>MOL_PROPERTY
Pdih
SciTegic.value.DoubleValue
2.112

@<SCITEGIC>MOL_PROPERTY
Idih
SciTegic.value.DoubleValue
0.000

@<SCITEGIC>MOL_PROPERTY
Tether
SciTegic.value.DoubleValue
0.000

@<TRIPOS>MOLECULE
guest-s13_vm2.mol2 : vm2 ligand conformer 32
          26          25           1
SMALL
USER_CHARGES
 
@<TRIPOS>ATOM
       1    C1      20.714936   17.885350   19.438231 C.3        1 MOL1        -0.2398
       2    H1      19.725605   17.492141   19.170167 H          1 MOL1         0.0972
       3    H2      21.254990   18.101563   18.507296 H          1 MOL1         0.0972
       4    H3      21.263428   17.097281   19.970496 H          1 MOL1         0.0972
       5    C2      20.590544   19.157172   20.303830 C.3        1 MOL1        -0.1383
       6    H4      20.069800   19.937577   19.731340 H          1 MOL1         0.0961
       7    H5      21.594181   19.545076   20.527862 H          1 MOL1         0.0961
       8    C3      19.831789   18.881147   21.620804 C.3        1 MOL1        -0.1407
       9    H6      18.828978   18.497177   21.387607 H          1 MOL1         0.0961
      10    H7      20.351962   18.088992   22.170144 H          1 MOL1         0.0961
      11    C4      19.705408   20.159052   22.486773 C.3        1 MOL1        -0.1407
      12    H8      19.201083   20.928094   21.885232 H          1 MOL1         0.0961
      13    H9      20.700066   20.562839   22.721615 H          1 MOL1         0.0961
      14    C5      18.892479   19.960053   23.793424 C.3        1 MOL1        -0.1472
      15    H10     18.440046   20.926539   24.052922 H          1 MOL1         0.0961
      16    H11     18.053755   19.272763   23.620479 H          1 MOL1         0.0961
      17    C6      19.730434   19.493594   25.007226 C.3        1 MOL1         0.1190
      18    H12     20.556774   20.198483   25.141087 H          1 MOL1         0.0923
      19    C7      18.872576   19.514203   26.282843 C.3        1 MOL1        -0.2463
      20    H13     18.475544   20.519612   26.470559 H          1 MOL1         0.0972
      21    H14     19.468848   19.224599   27.156909 H          1 MOL1         0.0972
      22    H15     18.025215   18.821781   26.202488 H          1 MOL1         0.0972
      23    N1      20.349834   18.137429   24.820870 N.4        1 MOL1        -0.5974
      24    H16     20.901340   17.862867   25.638736 H          1 MOL1         0.3625
      25    H17     19.636311   17.418501   24.675259 H          1 MOL1         0.3625
      26    H18     20.975198   18.125665   24.011165 H          1 MOL1         0.3625
@<TRIPOS>BOND
    1     1     2    1
    2     1     3    1
    3     1     4    1
    4     1     5    1
    5     5     6    1
    6     5     7    1
    7     5     8    1
    8     8     9    1
    9     8    10    1
   10     8    11    1
   11    11    12    1
   12    11    13    1
   13    11    14    1
   14    14    15    1
   15    14    16    1
   16    14    17    1
   17    17    18    1
   18    17    19    1
   19    19    20    1
   20    19    21    1
   21    19    22    1
   22    17    23    1
   23    23    24    1
   24    23    25    1
   25    23    26    1
@<TRIPOS>SUBSTRUCTURE
       1 MOL1            1 RESIDUE      1      MOL     
@<SCITEGIC>MOL_PROPERTY
VM2 Rank
SciTegic.value.IntegerValue
32

@<SCITEGIC>MOL_PROPERTY
Conf_Id
SciTegic.value.IntegerValue
732

@<SCITEGIC>MOL_PROPERTY
Probability
SciTegic.value.DoubleValue
0.19

@<SCITEGIC>MOL_PROPERTY
Sum Probability
SciTegic.value.DoubleValue
98.56

@<SCITEGIC>MOL_PROPERTY
Delta G
SciTegic.value.DoubleValue
2.691

@<SCITEGIC>MOL_PROPERTY
G
SciTegic.value.DoubleValue
26.403

@<SCITEGIC>MOL_PROPERTY
E
SciTegic.value.DoubleValue
-5.958

@<SCITEGIC>MOL_PROPERTY
-TS
SciTegic.value.DoubleValue
32.361

@<SCITEGIC>MOL_PROPERTY
U+W
SciTegic.value.DoubleValue
-27.420

@<SCITEGIC>MOL_PROPERTY
U
SciTegic.value.DoubleValue
26.493

@<SCITEGIC>MOL_PROPERTY
W
SciTegic.value.DoubleValue
-53.913

@<SCITEGIC>MOL_PROPERTY
W(PB)
SciTegic.value.DoubleValue
-56.220

@<SCITEGIC>MOL_PROPERTY
W(SA)
SciTegic.value.DoubleValue
2.307

@<SCITEGIC>MOL_PROPERTY
Valence
SciTegic.value.DoubleValue
4.730

@<SCITEGIC>MOL_PROPERTY
Coulomb
SciTegic.value.DoubleValue
20.826

@<SCITEGIC>MOL_PROPERTY
VdW
SciTegic.value.DoubleValue
0.936

@<SCITEGIC>MOL_PROPERTY
VdW6
SciTegic.value.DoubleValue
-7.662

@<SCITEGIC>MOL_PROPERTY
VdW12
SciTegic.value.DoubleValue
8.598

@<SCITEGIC>MOL_PROPERTY
Bond
SciTegic.value.DoubleValue
0.241

@<SCITEGIC>MOL_PROPERTY
Angle
SciTegic.value.DoubleValue
1.433

@<SCITEGIC>MOL_PROPERTY
Pdih
SciTegic.value.DoubleValue
3.056

@<SCITEGIC>MOL_PROPERTY
Idih
SciTegic.value.DoubleValue
0.000

@<SCITEGIC>MOL_PROPERTY
Tether
SciTegic.value.DoubleValue
0.000

@<TRIPOS>MOLECULE
guest-s13_vm2.mol2 : vm2 ligand conformer 33
          26          25           1
SMALL
USER_CHARGES
 
@<TRIPOS>ATOM
       1    C1      21.364361   19.244360   19.931330 C.3        1 MOL1        -0.2398
       2    H1      21.178183   20.300029   20.164536 H          1 MOL1         0.0972
       3    H2      22.222669   18.906308   20.526264 H          1 MOL1         0.0972
       4    H3      21.646531   19.185541   18.872156 H          1 MOL1         0.0972
       5    C2      20.117944   18.373278   20.207779 C.3        1 MOL1        -0.1383
       6    H4      20.313222   17.352128   19.851458 H          1 MOL1         0.0961
       7    H5      19.268133   18.746398   19.619238 H          1 MOL1         0.0961
       8    C3      19.732661   18.312235   21.705441 C.3        1 MOL1        -0.1407
       9    H6      18.910766   17.592441   21.822080 H          1 MOL1         0.0961
      10    H7      20.579931   17.908074   22.269763 H          1 MOL1         0.0961
      11    C4      19.289755   19.683906   22.278091 C.3        1 MOL1        -0.1407
      12    H8      18.516564   20.095134   21.614460 H          1 MOL1         0.0961
      13    H9      20.121487   20.400471   22.256397 H          1 MOL1         0.0961
      14    C5      18.701703   19.614379   23.712566 C.3        1 MOL1        -0.1472
      15    H10     18.035214   20.478299   23.837247 H          1 MOL1         0.0961
      16    H11     18.064979   18.726602   23.822217 H          1 MOL1         0.0961
      17    C6      19.753691   19.665705   24.845664 C.3        1 MOL1         0.1190
      18    H12     20.385153   20.544974   24.685199 H          1 MOL1         0.0923
      19    C7      19.057542   19.818692   26.207916 C.3        1 MOL1        -0.2463
      20    H13     18.443245   20.727381   26.233147 H          1 MOL1         0.0972
      21    H14     19.796114   19.895420   27.015397 H          1 MOL1         0.0972
      22    H15     18.407267   18.960692   26.419844 H          1 MOL1         0.0972
      23    N1      20.670344   18.475445   24.865213 N.4        1 MOL1        -0.5974
      24    H16     20.148274   17.604737   24.993533 H          1 MOL1         0.3625
      25    H17     21.194662   18.399411   23.990250 H          1 MOL1         0.3625
      26    H18     21.351816   18.541159   25.626571 H          1 MOL1         0.3625
@<TRIPOS>BOND
    1     1     2    1
    2     1     3    1
    3     1     4    1
    4     1     5    1
    5     5     6    1
    6     5     7    1
    7     5     8    1
    8     8     9    1
    9     8    10    1
   10     8    11    1
   11    11    12    1
   12    11    13    1
   13    11    14    1
   14    14    15    1
   15    14    16    1
   16    14    17    1
   17    17    18    1
   18    17    19    1
   19    19    20    1
   20    19    21    1
   21    19    22    1
   22    17    23    1
   23    23    24    1
   24    23    25    1
   25    23    26    1
@<TRIPOS>SUBSTRUCTURE
       1 MOL1            1 RESIDUE      1      MOL     
@<SCITEGIC>MOL_PROPERTY
VM2 Rank
SciTegic.value.IntegerValue
33

@<SCITEGIC>MOL_PROPERTY
Conf_Id
SciTegic.value.IntegerValue
977

@<SCITEGIC>MOL_PROPERTY
Probability
SciTegic.value.DoubleValue
0.12

@<SCITEGIC>MOL_PROPERTY
Sum Probability
SciTegic.value.DoubleValue
98.67

@<SCITEGIC>MOL_PROPERTY
Delta G
SciTegic.value.DoubleValue
2.961

@<SCITEGIC>MOL_PROPERTY
G
SciTegic.value.DoubleValue
26.673

@<SCITEGIC>MOL_PROPERTY
E
SciTegic.value.DoubleValue
-5.420

@<SCITEGIC>MOL_PROPERTY
-TS
SciTegic.value.DoubleValue
32.093

@<SCITEGIC>MOL_PROPERTY
U+W
SciTegic.value.DoubleValue
-26.881

@<SCITEGIC>MOL_PROPERTY
U
SciTegic.value.DoubleValue
27.054

@<SCITEGIC>MOL_PROPERTY
W
SciTegic.value.DoubleValue
-53.936

@<SCITEGIC>MOL_PROPERTY
W(PB)
SciTegic.value.DoubleValue
-56.225

@<SCITEGIC>MOL_PROPERTY
W(SA)
SciTegic.value.DoubleValue
2.290

@<SCITEGIC>MOL_PROPERTY
Valence
SciTegic.value.DoubleValue
5.138

@<SCITEGIC>MOL_PROPERTY
Coulomb
SciTegic.value.DoubleValue
20.885

@<SCITEGIC>MOL_PROPERTY
VdW
SciTegic.value.DoubleValue
1.031

@<SCITEGIC>MOL_PROPERTY
VdW6
SciTegic.value.DoubleValue
-8.326

@<SCITEGIC>MOL_PROPERTY
VdW12
SciTegic.value.DoubleValue
9.356

@<SCITEGIC>MOL_PROPERTY
Bond
SciTegic.value.DoubleValue
0.283

@<SCITEGIC>MOL_PROPERTY
Angle
SciTegic.value.DoubleValue
1.709

@<SCITEGIC>MOL_PROPERTY
Pdih
SciTegic.value.DoubleValue
3.146

@<SCITEGIC>MOL_PROPERTY
Idih
SciTegic.value.DoubleValue
0.000

@<SCITEGIC>MOL_PROPERTY
Tether
SciTegic.value.DoubleValue
0.000

@<TRIPOS>MOLECULE
guest-s13_vm2.mol2 : vm2 ligand conformer 34
          26          25           1
SMALL
USER_CHARGES
 
@<TRIPOS>ATOM
       1    C1      19.866650   19.804686   19.235456 C.3        1 MOL1        -0.2398
       2    H1      20.335016   19.639545   18.256472 H          1 MOL1         0.0972
       3    H2      18.784062   19.664452   19.118960 H          1 MOL1         0.0972
       4    H3      20.047257   20.848539   19.523515 H          1 MOL1         0.0972
       5    C2      20.442288   18.831424   20.285965 C.3        1 MOL1        -0.1383
       6    H4      21.530052   18.972167   20.356104 H          1 MOL1         0.0961
       7    H5      20.277217   17.797107   19.953006 H          1 MOL1         0.0961
       8    C3      19.798490   19.042544   21.674143 C.3        1 MOL1        -0.1407
       9    H6      19.965433   20.080853   21.989580 H          1 MOL1         0.0961
      10    H7      18.712050   18.896906   21.598747 H          1 MOL1         0.0961
      11    C4      20.379807   18.073558   22.730202 C.3        1 MOL1        -0.1407
      12    H8      21.454139   18.268900   22.853499 H          1 MOL1         0.0961
      13    H9      20.296149   17.043835   22.355929 H          1 MOL1         0.0961
      14    C5      19.682985   18.148862   24.112702 C.3        1 MOL1        -0.1472
      15    H10     18.625127   17.869455   24.017890 H          1 MOL1         0.0961
      16    H11     20.135908   17.377503   24.749578 H          1 MOL1         0.0961
      17    C6      19.818867   19.525261   24.808446 C.3        1 MOL1         0.1190
      18    H12     20.660925   20.056140   24.353781 H          1 MOL1         0.0923
      19    C7      18.547192   20.376649   24.638375 C.3        1 MOL1        -0.2463
      20    H13     18.297427   20.522071   23.581736 H          1 MOL1         0.0972
      21    H14     18.684429   21.368976   25.085280 H          1 MOL1         0.0972
      22    H15     17.686286   19.901995   25.125592 H          1 MOL1         0.0972
      23    N1      20.151720   19.385017   26.268712 N.4        1 MOL1        -0.5974
      24    H16     21.021441   18.862652   26.408451 H          1 MOL1         0.3625
      25    H17     20.271187   20.299030   26.714623 H          1 MOL1         0.3625
      26    H18     19.411589   18.892466   26.775928 H          1 MOL1         0.3625
@<TRIPOS>BOND
    1     1     2    1
    2     1     3    1
    3     1     4    1
    4     1     5    1
    5     5     6    1
    6     5     7    1
    7     5     8    1
    8     8     9    1
    9     8    10    1
   10     8    11    1
   11    11    12    1
   12    11    13    1
   13    11    14    1
   14    14    15    1
   15    14    16    1
   16    14    17    1
   17    17    18    1
   18    17    19    1
   19    19    20    1
   20    19    21    1
   21    19    22    1
   22    17    23    1
   23    23    24    1
   24    23    25    1
   25    23    26    1
@<TRIPOS>SUBSTRUCTURE
       1 MOL1            1 RESIDUE      1      MOL     
@<SCITEGIC>MOL_PROPERTY
VM2 Rank
SciTegic.value.IntegerValue
34

@<SCITEGIC>MOL_PROPERTY
Conf_Id
SciTegic.value.IntegerValue
188

@<SCITEGIC>MOL_PROPERTY
Probability
SciTegic.value.DoubleValue
0.08

@<SCITEGIC>MOL_PROPERTY
Sum Probability
SciTegic.value.DoubleValue
98.75

@<SCITEGIC>MOL_PROPERTY
Delta G
SciTegic.value.DoubleValue
3.206

@<SCITEGIC>MOL_PROPERTY
G
SciTegic.value.DoubleValue
26.919

@<SCITEGIC>MOL_PROPERTY
E
SciTegic.value.DoubleValue
-5.787

@<SCITEGIC>MOL_PROPERTY
-TS
SciTegic.value.DoubleValue
32.706

@<SCITEGIC>MOL_PROPERTY
U+W
SciTegic.value.DoubleValue
-27.249

@<SCITEGIC>MOL_PROPERTY
U
SciTegic.value.DoubleValue
26.735

@<SCITEGIC>MOL_PROPERTY
W
SciTegic.value.DoubleValue
-53.984

@<SCITEGIC>MOL_PROPERTY
W(PB)
SciTegic.value.DoubleValue
-56.284

@<SCITEGIC>MOL_PROPERTY
W(SA)
SciTegic.value.DoubleValue
2.300

@<SCITEGIC>MOL_PROPERTY
Valence
SciTegic.value.DoubleValue
5.862

@<SCITEGIC>MOL_PROPERTY
Coulomb
SciTegic.value.DoubleValue
19.879

@<SCITEGIC>MOL_PROPERTY
VdW
SciTegic.value.DoubleValue
0.994

@<SCITEGIC>MOL_PROPERTY
VdW6
SciTegic.value.DoubleValue
-7.879

@<SCITEGIC>MOL_PROPERTY
VdW12
SciTegic.value.DoubleValue
8.873

@<SCITEGIC>MOL_PROPERTY
Bond
SciTegic.value.DoubleValue
0.209

@<SCITEGIC>MOL_PROPERTY
Angle
SciTegic.value.DoubleValue
1.378

@<SCITEGIC>MOL_PROPERTY
Pdih
SciTegic.value.DoubleValue
4.275

@<SCITEGIC>MOL_PROPERTY
Idih
SciTegic.value.DoubleValue
0.000

@<SCITEGIC>MOL_PROPERTY
Tether
SciTegic.value.DoubleValue
0.000

@<TRIPOS>MOLECULE
guest-s13_vm2.mol2 : vm2 ligand conformer 35
          26          25           1
SMALL
USER_CHARGES
 
@<TRIPOS>ATOM
       1    C1      20.741445   19.789000   19.693095 C.3        1 MOL1        -0.2398
       2    H1      19.804001   20.029076   19.174606 H          1 MOL1         0.0972
       3    H2      21.407202   20.657376   19.605205 H          1 MOL1         0.0972
       4    H3      21.215395   18.947656   19.170854 H          1 MOL1         0.0972
       5    C2      20.483238   19.448332   21.176146 C.3        1 MOL1        -0.1383
       6    H4      20.046937   20.328388   21.665902 H          1 MOL1         0.0961
       7    H5      21.440270   19.237246   21.673190 H          1 MOL1         0.0961
       8    C3      19.533378   18.237776   21.325299 C.3        1 MOL1        -0.1407
       9    H6      18.540635   18.504276   20.937085 H          1 MOL1         0.0961
      10    H7      19.898353   17.419268   20.689464 H          1 MOL1         0.0961
      11    C4      19.394785   17.697165   22.772217 C.3        1 MOL1        -0.1407
      12    H8      20.362475   17.317466   23.124082 H          1 MOL1         0.0961
      13    H9      18.734665   16.819671   22.731732 H          1 MOL1         0.0961
      14    C5      18.790398   18.700970   23.791701 C.3        1 MOL1        -0.1472
      15    H10     17.997244   19.279188   23.299304 H          1 MOL1         0.0961
      16    H11     18.296153   18.134808   24.592411 H          1 MOL1         0.0961
      17    C6      19.815355   19.661256   24.439274 C.3        1 MOL1         0.1190
      18    H12     20.365684   20.178235   23.650265 H          1 MOL1         0.0923
      19    C7      19.091265   20.719270   25.286901 C.3        1 MOL1        -0.2463
      20    H13     18.391116   21.298603   24.672163 H          1 MOL1         0.0972
      21    H14     19.809001   21.423271   25.725784 H          1 MOL1         0.0972
      22    H15     18.524982   20.254581   26.103794 H          1 MOL1         0.0972
      23    N1      20.838135   18.934232   25.269367 N.4        1 MOL1        -0.5974
      24    H16     20.398848   18.425303   26.040943 H          1 MOL1         0.3625
      25    H17     21.360517   18.254826   24.710236 H          1 MOL1         0.3625
      26    H18     21.517798   19.581938   25.677917 H          1 MOL1         0.3625
@<TRIPOS>BOND
    1     1     2    1
    2     1     3    1
    3     1     4    1
    4     1     5    1
    5     5     6    1
    6     5     7    1
    7     5     8    1
    8     8     9    1
    9     8    10    1
   10     8    11    1
   11    11    12    1
   12    11    13    1
   13    11    14    1
   14    14    15    1
   15    14    16    1
   16    14    17    1
   17    17    18    1
   18    17    19    1
   19    19    20    1
   20    19    21    1
   21    19    22    1
   22    17    23    1
   23    23    24    1
   24    23    25    1
   25    23    26    1
@<TRIPOS>SUBSTRUCTURE
       1 MOL1            1 RESIDUE      1      MOL     
@<SCITEGIC>MOL_PROPERTY
VM2 Rank
SciTegic.value.IntegerValue
35

@<SCITEGIC>MOL_PROPERTY
Conf_Id
SciTegic.value.IntegerValue
109

@<SCITEGIC>MOL_PROPERTY
Probability
SciTegic.value.DoubleValue
0.07

@<SCITEGIC>MOL_PROPERTY
Sum Probability
SciTegic.value.DoubleValue
98.82

@<SCITEGIC>MOL_PROPERTY
Delta G
SciTegic.value.DoubleValue
3.249

@<SCITEGIC>MOL_PROPERTY
G
SciTegic.value.DoubleValue
26.962

@<SCITEGIC>MOL_PROPERTY
E
SciTegic.value.DoubleValue
-5.911

@<SCITEGIC>MOL_PROPERTY
-TS
SciTegic.value.DoubleValue
32.873

@<SCITEGIC>MOL_PROPERTY
U+W
SciTegic.value.DoubleValue
-27.373

@<SCITEGIC>MOL_PROPERTY
U
SciTegic.value.DoubleValue
26.753

@<SCITEGIC>MOL_PROPERTY
W
SciTegic.value.DoubleValue
-54.126

@<SCITEGIC>MOL_PROPERTY
W(PB)
SciTegic.value.DoubleValue
-56.392

@<SCITEGIC>MOL_PROPERTY
W(SA)
SciTegic.value.DoubleValue
2.267

@<SCITEGIC>MOL_PROPERTY
Valence
SciTegic.value.DoubleValue
5.252

@<SCITEGIC>MOL_PROPERTY
Coulomb
SciTegic.value.DoubleValue
20.764

@<SCITEGIC>MOL_PROPERTY
VdW
SciTegic.value.DoubleValue
0.737

@<SCITEGIC>MOL_PROPERTY
VdW6
SciTegic.value.DoubleValue
-8.685

@<SCITEGIC>MOL_PROPERTY
VdW12
SciTegic.value.DoubleValue
9.421

@<SCITEGIC>MOL_PROPERTY
Bond
SciTegic.value.DoubleValue
0.256

@<SCITEGIC>MOL_PROPERTY
Angle
SciTegic.value.DoubleValue
1.803

@<SCITEGIC>MOL_PROPERTY
Pdih
SciTegic.value.DoubleValue
3.193

@<SCITEGIC>MOL_PROPERTY
Idih
SciTegic.value.DoubleValue
0.000

@<SCITEGIC>MOL_PROPERTY
Tether
SciTegic.value.DoubleValue
0.000

@<TRIPOS>MOLECULE
guest-s13_vm2.mol2 : vm2 ligand conformer 36
          26          25           1
SMALL
USER_CHARGES
 
@<TRIPOS>ATOM
       1    C1      20.315942   17.793990   19.662843 C.3        1 MOL1        -0.2398
       2    H1      20.096205   17.861419   18.589433 H          1 MOL1         0.0972
       3    H2      21.391621   17.605494   19.775216 H          1 MOL1         0.0972
       4    H3      19.773104   16.928143   20.063868 H          1 MOL1         0.0972
       5    C2      19.901759   19.092997   20.386179 C.3        1 MOL1        -0.1383
       6    H4      18.828741   19.271707   20.229092 H          1 MOL1         0.0961
       7    H5      20.433844   19.944119   19.938515 H          1 MOL1         0.0961
       8    C3      20.203178   19.025457   21.899625 C.3        1 MOL1        -0.1407
       9    H6      19.671418   18.165155   22.323416 H          1 MOL1         0.0961
      10    H7      21.278255   18.855241   22.049802 H          1 MOL1         0.0961
      11    C4      19.773800   20.321335   22.627843 C.3        1 MOL1        -0.1407
      12    H8      18.683988   20.439311   22.560772 H          1 MOL1         0.0961
      13    H9      20.198250   21.181495   22.091886 H          1 MOL1         0.0961
      14    C5      20.230568   20.415932   24.111129 C.3        1 MOL1        -0.1472
      15    H10     21.327609   20.422586   24.152896 H          1 MOL1         0.0961
      16    H11     19.919558   21.397029   24.493573 H          1 MOL1         0.0961
      17    C6      19.696663   19.341916   25.093249 C.3        1 MOL1         0.1190
      18    H12     19.934103   19.692306   26.102518 H          1 MOL1         0.0923
      19    C7      18.168773   19.178760   25.012999 C.3        1 MOL1        -0.2463
      20    H13     17.668051   20.148218   25.126828 H          1 MOL1         0.0972
      21    H14     17.809890   18.522585   25.815316 H          1 MOL1         0.0972
      22    H15     17.857660   18.740712   24.057116 H          1 MOL1         0.0972
      23    N1      20.397317   18.017614   24.960132 N.4        1 MOL1        -0.5974
      24    H16     20.064935   17.347536   25.659473 H          1 MOL1         0.3625
      25    H17     20.241217   17.604786   24.038471 H          1 MOL1         0.3625
      26    H18     21.408645   18.114758   25.087734 H          1 MOL1         0.3625
@<TRIPOS>BOND
    1     1     2    1
    2     1     3    1
    3     1     4    1
    4     1     5    1
    5     5     6    1
    6     5     7    1
    7     5     8    1
    8     8     9    1
    9     8    10    1
   10     8    11    1
   11    11    12    1
   12    11    13    1
   13    11    14    1
   14    14    15    1
   15    14    16    1
   16    14    17    1
   17    17    18    1
   18    17    19    1
   19    19    20    1
   20    19    21    1
   21    19    22    1
   22    17    23    1
   23    23    24    1
   24    23    25    1
   25    23    26    1
@<TRIPOS>SUBSTRUCTURE
       1 MOL1            1 RESIDUE      1      MOL     
@<SCITEGIC>MOL_PROPERTY
VM2 Rank
SciTegic.value.IntegerValue
36

@<SCITEGIC>MOL_PROPERTY
Conf_Id
SciTegic.value.IntegerValue
864

@<SCITEGIC>MOL_PROPERTY
Probability
SciTegic.value.DoubleValue
0.07

@<SCITEGIC>MOL_PROPERTY
Sum Probability
SciTegic.value.DoubleValue
98.89

@<SCITEGIC>MOL_PROPERTY
Delta G
SciTegic.value.DoubleValue
3.301

@<SCITEGIC>MOL_PROPERTY
G
SciTegic.value.DoubleValue
27.013

@<SCITEGIC>MOL_PROPERTY
E
SciTegic.value.DoubleValue
-6.121

@<SCITEGIC>MOL_PROPERTY
-TS
SciTegic.value.DoubleValue
33.134

@<SCITEGIC>MOL_PROPERTY
U+W
SciTegic.value.DoubleValue
-27.583

@<SCITEGIC>MOL_PROPERTY
U
SciTegic.value.DoubleValue
26.681

@<SCITEGIC>MOL_PROPERTY
W
SciTegic.value.DoubleValue
-54.264

@<SCITEGIC>MOL_PROPERTY
W(PB)
SciTegic.value.DoubleValue
-56.533

@<SCITEGIC>MOL_PROPERTY
W(SA)
SciTegic.value.DoubleValue
2.269

@<SCITEGIC>MOL_PROPERTY
Valence
SciTegic.value.DoubleValue
4.633

@<SCITEGIC>MOL_PROPERTY
Coulomb
SciTegic.value.DoubleValue
21.285

@<SCITEGIC>MOL_PROPERTY
VdW
SciTegic.value.DoubleValue
0.764

@<SCITEGIC>MOL_PROPERTY
VdW6
SciTegic.value.DoubleValue
-8.908

@<SCITEGIC>MOL_PROPERTY
VdW12
SciTegic.value.DoubleValue
9.671

@<SCITEGIC>MOL_PROPERTY
Bond
SciTegic.value.DoubleValue
0.277

@<SCITEGIC>MOL_PROPERTY
Angle
SciTegic.value.DoubleValue
2.161

@<SCITEGIC>MOL_PROPERTY
Pdih
SciTegic.value.DoubleValue
2.194

@<SCITEGIC>MOL_PROPERTY
Idih
SciTegic.value.DoubleValue
0.000

@<SCITEGIC>MOL_PROPERTY
Tether
SciTegic.value.DoubleValue
0.000

@<TRIPOS>MOLECULE
guest-s13_vm2.mol2 : vm2 ligand conformer 37
          26          25           1
SMALL
USER_CHARGES
 
@<TRIPOS>ATOM
       1    C1      19.527972   18.452264   19.249276 C.3        1 MOL1        -0.2398
       2    H1      19.335040   19.450299   18.834629 H          1 MOL1         0.0972
       3    H2      19.986655   17.842478   18.460097 H          1 MOL1         0.0972
       4    H3      18.563105   17.997321   19.508664 H          1 MOL1         0.0972
       5    C2      20.452806   18.533075   20.482291 C.3        1 MOL1        -0.1383
       6    H4      21.420903   18.959611   20.184352 H          1 MOL1         0.0961
       7    H5      20.654164   17.518472   20.853651 H          1 MOL1         0.0961
       8    C3      19.830553   19.386858   21.609257 C.3        1 MOL1        -0.1407
       9    H6      19.631391   20.398783   21.230275 H          1 MOL1         0.0961
      10    H7      18.859719   18.960912   21.888485 H          1 MOL1         0.0961
      11    C4      20.761140   19.474049   22.843930 C.3        1 MOL1        -0.1407
      12    H8      21.709434   19.926741   22.522579 H          1 MOL1         0.0961
      13    H9      21.014486   18.467117   23.199917 H          1 MOL1         0.0961
      14    C5      20.178922   20.334176   24.000434 C.3        1 MOL1        -0.1472
      15    H10     21.007476   20.870907   24.481004 H          1 MOL1         0.0961
      16    H11     19.526684   21.117353   23.592080 H          1 MOL1         0.0961
      17    C6      19.422186   19.561850   25.109711 C.3        1 MOL1         0.1190
      18    H12     19.070018   20.303496   25.833408 H          1 MOL1         0.0923
      19    C7      18.188973   18.810753   24.582411 C.3        1 MOL1        -0.2463
      20    H13     18.475229   17.966772   23.943736 H          1 MOL1         0.0972
      21    H14     17.539997   19.481513   24.005954 H          1 MOL1         0.0972
      22    H15     17.598163   18.412306   25.416244 H          1 MOL1         0.0972
      23    N1      20.325449   18.634975   25.876689 N.4        1 MOL1        -0.5974
      24    H16     21.122360   19.135587   26.280135 H          1 MOL1         0.3625
      25    H17     19.827721   18.181451   26.648031 H          1 MOL1         0.3625
      26    H18     20.698394   17.896099   25.275845 H          1 MOL1         0.3625
@<TRIPOS>BOND
    1     1     2    1
    2     1     3    1
    3     1     4    1
    4     1     5    1
    5     5     6    1
    6     5     7    1
    7     5     8    1
    8     8     9    1
    9     8    10    1
   10     8    11    1
   11    11    12    1
   12    11    13    1
   13    11    14    1
   14    14    15    1
   15    14    16    1
   16    14    17    1
   17    17    18    1
   18    17    19    1
   19    19    20    1
   20    19    21    1
   21    19    22    1
   22    17    23    1
   23    23    24    1
   24    23    25    1
   25    23    26    1
@<TRIPOS>SUBSTRUCTURE
       1 MOL1            1 RESIDUE      1      MOL     
@<SCITEGIC>MOL_PROPERTY
VM2 Rank
SciTegic.value.IntegerValue
37

@<SCITEGIC>MOL_PROPERTY
Conf_Id
SciTegic.value.IntegerValue
154

@<SCITEGIC>MOL_PROPERTY
Probability
SciTegic.value.DoubleValue
0.06

@<SCITEGIC>MOL_PROPERTY
Sum Probability
SciTegic.value.DoubleValue
98.96

@<SCITEGIC>MOL_PROPERTY
Delta G
SciTegic.value.DoubleValue
3.322

@<SCITEGIC>MOL_PROPERTY
G
SciTegic.value.DoubleValue
27.034

@<SCITEGIC>MOL_PROPERTY
E
SciTegic.value.DoubleValue
-5.873

@<SCITEGIC>MOL_PROPERTY
-TS
SciTegic.value.DoubleValue
32.907

@<SCITEGIC>MOL_PROPERTY
U+W
SciTegic.value.DoubleValue
-27.335

@<SCITEGIC>MOL_PROPERTY
U
SciTegic.value.DoubleValue
26.848

@<SCITEGIC>MOL_PROPERTY
W
SciTegic.value.DoubleValue
-54.183

@<SCITEGIC>MOL_PROPERTY
W(PB)
SciTegic.value.DoubleValue
-56.440

@<SCITEGIC>MOL_PROPERTY
W(SA)
SciTegic.value.DoubleValue
2.257

@<SCITEGIC>MOL_PROPERTY
Valence
SciTegic.value.DoubleValue
5.824

@<SCITEGIC>MOL_PROPERTY
Coulomb
SciTegic.value.DoubleValue
20.057

@<SCITEGIC>MOL_PROPERTY
VdW
SciTegic.value.DoubleValue
0.968

@<SCITEGIC>MOL_PROPERTY
VdW6
SciTegic.value.DoubleValue
-8.367

@<SCITEGIC>MOL_PROPERTY
VdW12
SciTegic.value.DoubleValue
9.335

@<SCITEGIC>MOL_PROPERTY
Bond
SciTegic.value.DoubleValue
0.267

@<SCITEGIC>MOL_PROPERTY
Angle
SciTegic.value.DoubleValue
1.799

@<SCITEGIC>MOL_PROPERTY
Pdih
SciTegic.value.DoubleValue
3.758

@<SCITEGIC>MOL_PROPERTY
Idih
SciTegic.value.DoubleValue
0.000

@<SCITEGIC>MOL_PROPERTY
Tether
SciTegic.value.DoubleValue
0.000

@<TRIPOS>MOLECULE
guest-s13_vm2.mol2 : vm2 ligand conformer 38
          26          25           1
SMALL
USER_CHARGES
 
@<TRIPOS>ATOM
       1    C1      19.369980   18.954533   19.119764 C.3        1 MOL1        -0.2398
       2    H1      19.674144   19.406147   18.166575 H          1 MOL1         0.0972
       3    H2      19.361383   17.864597   18.988621 H          1 MOL1         0.0972
       4    H3      18.344256   19.281174   19.335218 H          1 MOL1         0.0972
       5    C2      20.333875   19.369574   20.251491 C.3        1 MOL1        -0.1383
       6    H4      20.346047   20.465293   20.336036 H          1 MOL1         0.0961
       7    H5      21.355970   19.060276   19.991523 H          1 MOL1         0.0961
       8    C3      19.928353   18.746728   21.605611 C.3        1 MOL1        -0.1407
       9    H6      18.902783   19.048902   21.849314 H          1 MOL1         0.0961
      10    H7      19.917575   17.651878   21.513173 H          1 MOL1         0.0961
      11    C4      20.899693   19.156221   22.740063 C.3        1 MOL1        -0.1407
      12    H8      20.976252   20.250467   22.805098 H          1 MOL1         0.0961
      13    H9      21.904235   18.798279   22.474804 H          1 MOL1         0.0961
      14    C5      20.517096   18.565621   24.123254 C.3        1 MOL1        -0.1472
      15    H10     19.966417   17.624058   23.996719 H          1 MOL1         0.0961
      16    H11     21.447469   18.299676   24.642311 H          1 MOL1         0.0961
      17    C6      19.728728   19.526351   25.045988 C.3        1 MOL1         0.1190
      18    H12     20.329344   20.430023   25.188423 H          1 MOL1         0.0923
      19    C7      18.370652   19.942221   24.455923 C.3        1 MOL1        -0.2463
      20    H13     17.760983   19.065659   24.203941 H          1 MOL1         0.0972
      21    H14     18.503593   20.547313   23.551721 H          1 MOL1         0.0972
      22    H15     17.808373   20.553654   25.172347 H          1 MOL1         0.0972
      23    N1      19.539623   18.926751   26.411907 N.4        1 MOL1        -0.5974
      24    H16     20.435355   18.686212   26.845981 H          1 MOL1         0.3625
      25    H17     19.061000   19.576109   27.042515 H          1 MOL1         0.3625
      26    H18     18.978400   18.071873   26.370953 H          1 MOL1         0.3625
@<TRIPOS>BOND
    1     1     2    1
    2     1     3    1
    3     1     4    1
    4     1     5    1
    5     5     6    1
    6     5     7    1
    7     5     8    1
    8     8     9    1
    9     8    10    1
   10     8    11    1
   11    11    12    1
   12    11    13    1
   13    11    14    1
   14    14    15    1
   15    14    16    1
   16    14    17    1
   17    17    18    1
   18    17    19    1
   19    19    20    1
   20    19    21    1
   21    19    22    1
   22    17    23    1
   23    23    24    1
   24    23    25    1
   25    23    26    1
@<TRIPOS>SUBSTRUCTURE
       1 MOL1            1 RESIDUE      1      MOL     
@<SCITEGIC>MOL_PROPERTY
VM2 Rank
SciTegic.value.IntegerValue
38

@<SCITEGIC>MOL_PROPERTY
Conf_Id
SciTegic.value.IntegerValue
573

@<SCITEGIC>MOL_PROPERTY
Probability
SciTegic.value.DoubleValue
0.06

@<SCITEGIC>MOL_PROPERTY
Sum Probability
SciTegic.value.DoubleValue
99.02

@<SCITEGIC>MOL_PROPERTY
Delta G
SciTegic.value.DoubleValue
3.322

@<SCITEGIC>MOL_PROPERTY
G
SciTegic.value.DoubleValue
27.034

@<SCITEGIC>MOL_PROPERTY
E
SciTegic.value.DoubleValue
-5.809

@<SCITEGIC>MOL_PROPERTY
-TS
SciTegic.value.DoubleValue
32.843

@<SCITEGIC>MOL_PROPERTY
U+W
SciTegic.value.DoubleValue
-27.271

@<SCITEGIC>MOL_PROPERTY
U
SciTegic.value.DoubleValue
26.589

@<SCITEGIC>MOL_PROPERTY
W
SciTegic.value.DoubleValue
-53.861

@<SCITEGIC>MOL_PROPERTY
W(PB)
SciTegic.value.DoubleValue
-56.176

@<SCITEGIC>MOL_PROPERTY
W(SA)
SciTegic.value.DoubleValue
2.315

@<SCITEGIC>MOL_PROPERTY
Valence
SciTegic.value.DoubleValue
5.830

@<SCITEGIC>MOL_PROPERTY
Coulomb
SciTegic.value.DoubleValue
19.752

@<SCITEGIC>MOL_PROPERTY
VdW
SciTegic.value.DoubleValue
1.008

@<SCITEGIC>MOL_PROPERTY
VdW6
SciTegic.value.DoubleValue
-7.925

@<SCITEGIC>MOL_PROPERTY
VdW12
SciTegic.value.DoubleValue
8.933

@<SCITEGIC>MOL_PROPERTY
Bond
SciTegic.value.DoubleValue
0.235

@<SCITEGIC>MOL_PROPERTY
Angle
SciTegic.value.DoubleValue
1.652

@<SCITEGIC>MOL_PROPERTY
Pdih
SciTegic.value.DoubleValue
3.942

@<SCITEGIC>MOL_PROPERTY
Idih
SciTegic.value.DoubleValue
0.000

@<SCITEGIC>MOL_PROPERTY
Tether
SciTegic.value.DoubleValue
0.000

@<TRIPOS>MOLECULE
guest-s13_vm2.mol2 : vm2 ligand conformer 39
          26          25           1
SMALL
USER_CHARGES
 
@<TRIPOS>ATOM
       1    C1      18.994534   18.448631   20.074613 C.3        1 MOL1        -0.2398
       2    H1      18.742569   19.298588   19.427221 H          1 MOL1         0.0972
       3    H2      18.756712   17.529363   19.523898 H          1 MOL1         0.0972
       4    H3      18.340027   18.487300   20.952050 H          1 MOL1         0.0972
       5    C2      20.491745   18.474405   20.461458 C.3        1 MOL1        -0.1383
       6    H4      21.080555   18.397559   19.536626 H          1 MOL1         0.0961
       7    H5      20.747833   17.587031   21.056892 H          1 MOL1         0.0961
       8    C3      20.914799   19.765587   21.208505 C.3        1 MOL1        -0.1407
       9    H6      21.942132   20.012825   20.906984 H          1 MOL1         0.0961
      10    H7      20.298703   20.614036   20.880278 H          1 MOL1         0.0961
      11    C4      20.897069   19.658604   22.755284 C.3        1 MOL1        -0.1407
      12    H8      21.285288   20.599764   23.168932 H          1 MOL1         0.0961
      13    H9      21.597719   18.872710   23.067574 H          1 MOL1         0.0961
      14    C5      19.497212   19.384970   23.358317 C.3        1 MOL1        -0.1472
      15    H10     18.777147   20.090375   22.922792 H          1 MOL1         0.0961
      16    H11     19.164373   18.375932   23.084984 H          1 MOL1         0.0961
      17    C6      19.468384   19.528112   24.895271 C.3        1 MOL1         0.1190
      18    H12     19.819133   20.532318   25.152628 H          1 MOL1         0.0923
      19    C7      18.032363   19.369487   25.419913 C.3        1 MOL1        -0.2463
      20    H13     17.632831   18.373998   25.189106 H          1 MOL1         0.0972
      21    H14     17.367877   20.117183   24.969208 H          1 MOL1         0.0972
      22    H15     17.998887   19.507508   26.507658 H          1 MOL1         0.0972
      23    N1      20.391893   18.558205   25.580640 N.4        1 MOL1        -0.5974
      24    H16     20.126897   17.589138   25.386025 H          1 MOL1         0.3625
      25    H17     21.359662   18.681656   25.271381 H          1 MOL1         0.3625
      26    H18     20.377226   18.681953   26.596936 H          1 MOL1         0.3625
@<TRIPOS>BOND
    1     1     2    1
    2     1     3    1
    3     1     4    1
    4     1     5    1
    5     5     6    1
    6     5     7    1
    7     5     8    1
    8     8     9    1
    9     8    10    1
   10     8    11    1
   11    11    12    1
   12    11    13    1
   13    11    14    1
   14    14    15    1
   15    14    16    1
   16    14    17    1
   17    17    18    1
   18    17    19    1
   19    19    20    1
   20    19    21    1
   21    19    22    1
   22    17    23    1
   23    23    24    1
   24    23    25    1
   25    23    26    1
@<TRIPOS>SUBSTRUCTURE
       1 MOL1            1 RESIDUE      1      MOL     
@<SCITEGIC>MOL_PROPERTY
VM2 Rank
SciTegic.value.IntegerValue
39

@<SCITEGIC>MOL_PROPERTY
Conf_Id
SciTegic.value.IntegerValue
476

@<SCITEGIC>MOL_PROPERTY
Probability
SciTegic.value.DoubleValue
0.06

@<SCITEGIC>MOL_PROPERTY
Sum Probability
SciTegic.value.DoubleValue
99.08

@<SCITEGIC>MOL_PROPERTY
Delta G
SciTegic.value.DoubleValue
3.347

@<SCITEGIC>MOL_PROPERTY
G
SciTegic.value.DoubleValue
27.059

@<SCITEGIC>MOL_PROPERTY
E
SciTegic.value.DoubleValue
-5.842

@<SCITEGIC>MOL_PROPERTY
-TS
SciTegic.value.DoubleValue
32.901

@<SCITEGIC>MOL_PROPERTY
U+W
SciTegic.value.DoubleValue
-27.304

@<SCITEGIC>MOL_PROPERTY
U
SciTegic.value.DoubleValue
26.796

@<SCITEGIC>MOL_PROPERTY
W
SciTegic.value.DoubleValue
-54.100

@<SCITEGIC>MOL_PROPERTY
W(PB)
SciTegic.value.DoubleValue
-56.404

@<SCITEGIC>MOL_PROPERTY
W(SA)
SciTegic.value.DoubleValue
2.304

@<SCITEGIC>MOL_PROPERTY
Valence
SciTegic.value.DoubleValue
5.706

@<SCITEGIC>MOL_PROPERTY
Coulomb
SciTegic.value.DoubleValue
20.107

@<SCITEGIC>MOL_PROPERTY
VdW
SciTegic.value.DoubleValue
0.982

@<SCITEGIC>MOL_PROPERTY
VdW6
SciTegic.value.DoubleValue
-8.397

@<SCITEGIC>MOL_PROPERTY
VdW12
SciTegic.value.DoubleValue
9.379

@<SCITEGIC>MOL_PROPERTY
Bond
SciTegic.value.DoubleValue
0.254

@<SCITEGIC>MOL_PROPERTY
Angle
SciTegic.value.DoubleValue
1.645

@<SCITEGIC>MOL_PROPERTY
Pdih
SciTegic.value.DoubleValue
3.808

@<SCITEGIC>MOL_PROPERTY
Idih
SciTegic.value.DoubleValue
0.000

@<SCITEGIC>MOL_PROPERTY
Tether
SciTegic.value.DoubleValue
0.000

@<TRIPOS>MOLECULE
guest-s13_vm2.mol2 : vm2 ligand conformer 40
          26          25           1
SMALL
USER_CHARGES
 
@<TRIPOS>ATOM
       1    C1      19.495448   20.015283   20.147476 C.3        1 MOL1        -0.2398
       2    H1      19.691791   20.713909   20.970108 H          1 MOL1         0.0972
       3    H2      19.560319   20.584956   19.211447 H          1 MOL1         0.0972
       4    H3      18.467706   19.641686   20.242402 H          1 MOL1         0.0972
       5    C2      20.512620   18.853288   20.143058 C.3        1 MOL1        -0.1383
       6    H4      21.532071   19.261843   20.103758 H          1 MOL1         0.0961
       7    H5      20.381543   18.274117   19.218316 H          1 MOL1         0.0961
       8    C3      20.386119   17.888366   21.349655 C.3        1 MOL1        -0.1407
       9    H6      19.403465   17.396953   21.339279 H          1 MOL1         0.0961
      10    H7      21.120592   17.083589   21.206973 H          1 MOL1         0.0961
      11    C4      20.647474   18.542028   22.731715 C.3        1 MOL1        -0.1407
      12    H8      21.334115   19.392699   22.620884 H          1 MOL1         0.0961
      13    H9      21.168033   17.809258   23.362544 H          1 MOL1         0.0961
      14    C5      19.349594   18.985968   23.455456 C.3        1 MOL1        -0.1472
      15    H10     18.762608   19.636303   22.797272 H          1 MOL1         0.0961
      16    H11     18.722638   18.107545   23.658158 H          1 MOL1         0.0961
      17    C6      19.625477   19.739556   24.774628 C.3        1 MOL1         0.1190
      18    H12     20.270879   20.594827   24.551761 H          1 MOL1         0.0923
      19    C7      18.312232   20.269586   25.372289 C.3        1 MOL1        -0.2463
      20    H13     17.805313   20.939981   24.667063 H          1 MOL1         0.0972
      21    H14     18.504945   20.837627   26.290743 H          1 MOL1         0.0972
      22    H15     17.626724   19.448187   25.615777 H          1 MOL1         0.0972
      23    N1      20.359036   18.893925   25.779722 N.4        1 MOL1        -0.5974
      24    H16     19.815866   18.066142   26.038569 H          1 MOL1         0.3625
      25    H17     21.257682   18.570734   25.411761 H          1 MOL1         0.3625
      26    H18     20.550500   19.416037   26.639440 H          1 MOL1         0.3625
@<TRIPOS>BOND
    1     1     2    1
    2     1     3    1
    3     1     4    1
    4     1     5    1
    5     5     6    1
    6     5     7    1
    7     5     8    1
    8     8     9    1
    9     8    10    1
   10     8    11    1
   11    11    12    1
   12    11    13    1
   13    11    14    1
   14    14    15    1
   15    14    16    1
   16    14    17    1
   17    17    18    1
   18    17    19    1
   19    19    20    1
   20    19    21    1
   21    19    22    1
   22    17    23    1
   23    23    24    1
   24    23    25    1
   25    23    26    1
@<TRIPOS>SUBSTRUCTURE
       1 MOL1            1 RESIDUE      1      MOL     
@<SCITEGIC>MOL_PROPERTY
VM2 Rank
SciTegic.value.IntegerValue
40

@<SCITEGIC>MOL_PROPERTY
Conf_Id
SciTegic.value.IntegerValue
700

@<SCITEGIC>MOL_PROPERTY
Probability
SciTegic.value.DoubleValue
0.06

@<SCITEGIC>MOL_PROPERTY
Sum Probability
SciTegic.value.DoubleValue
99.14

@<SCITEGIC>MOL_PROPERTY
Delta G
SciTegic.value.DoubleValue
3.385

@<SCITEGIC>MOL_PROPERTY
G
SciTegic.value.DoubleValue
27.097

@<SCITEGIC>MOL_PROPERTY
E
SciTegic.value.DoubleValue
-5.838

@<SCITEGIC>MOL_PROPERTY
-TS
SciTegic.value.DoubleValue
32.935

@<SCITEGIC>MOL_PROPERTY
U+W
SciTegic.value.DoubleValue
-27.300

@<SCITEGIC>MOL_PROPERTY
U
SciTegic.value.DoubleValue
26.787

@<SCITEGIC>MOL_PROPERTY
W
SciTegic.value.DoubleValue
-54.087

@<SCITEGIC>MOL_PROPERTY
W(PB)
SciTegic.value.DoubleValue
-56.349

@<SCITEGIC>MOL_PROPERTY
W(SA)
SciTegic.value.DoubleValue
2.262

@<SCITEGIC>MOL_PROPERTY
Valence
SciTegic.value.DoubleValue
5.742

@<SCITEGIC>MOL_PROPERTY
Coulomb
SciTegic.value.DoubleValue
20.023

@<SCITEGIC>MOL_PROPERTY
VdW
SciTegic.value.DoubleValue
1.022

@<SCITEGIC>MOL_PROPERTY
VdW6
SciTegic.value.DoubleValue
-8.392

@<SCITEGIC>MOL_PROPERTY
VdW12
SciTegic.value.DoubleValue
9.414

@<SCITEGIC>MOL_PROPERTY
Bond
SciTegic.value.DoubleValue
0.261

@<SCITEGIC>MOL_PROPERTY
Angle
SciTegic.value.DoubleValue
1.577

@<SCITEGIC>MOL_PROPERTY
Pdih
SciTegic.value.DoubleValue
3.904

@<SCITEGIC>MOL_PROPERTY
Idih
SciTegic.value.DoubleValue
0.000

@<SCITEGIC>MOL_PROPERTY
Tether
SciTegic.value.DoubleValue
0.000

@<TRIPOS>MOLECULE
guest-s13_vm2.mol2 : vm2 ligand conformer 41
          26          25           1
SMALL
USER_CHARGES
 
@<TRIPOS>ATOM
       1    C1      19.573996   17.715554   20.529978 C.3        1 MOL1        -0.2398
       2    H1      19.665638   16.919520   19.779776 H          1 MOL1         0.0972
       3    H2      19.783878   17.267480   21.508777 H          1 MOL1         0.0972
       4    H3      18.534465   18.067895   20.520599 H          1 MOL1         0.0972
       5    C2      20.555700   18.865908   20.217837 C.3        1 MOL1        -0.1383
       6    H4      20.427657   19.162463   19.167397 H          1 MOL1         0.0961
       7    H5      21.587534   18.498124   20.305966 H          1 MOL1         0.0961
       8    C3      20.373541   20.121921   21.107841 C.3        1 MOL1        -0.1407
       9    H6      21.090434   20.878758   20.760415 H          1 MOL1         0.0961
      10    H7      19.379355   20.559660   20.943508 H          1 MOL1         0.0961
      11    C4      20.616593   19.886288   22.621564 C.3        1 MOL1        -0.1407
      12    H8      21.075552   20.791224   23.043565 H          1 MOL1         0.0961
      13    H9      21.350809   19.081223   22.756164 H          1 MOL1         0.0961
      14    C5      19.316928   19.591977   23.415568 C.3        1 MOL1        -0.1472
      15    H10     18.614034   20.420903   23.258584 H          1 MOL1         0.0961
      16    H11     18.822716   18.692493   23.031886 H          1 MOL1         0.0961
      17    C6      19.563531   19.433514   24.931457 C.3        1 MOL1         0.1190
      18    H12     20.073872   20.332073   25.291781 H          1 MOL1         0.0923
      19    C7      18.227236   19.304503   25.680089 C.3        1 MOL1        -0.2463
      20    H13     18.393880   19.227768   26.761620 H          1 MOL1         0.0972
      21    H14     17.674319   18.414160   25.355316 H          1 MOL1         0.0972
      22    H15     17.594513   20.183110   25.502798 H          1 MOL1         0.0972
      23    N1      20.460475   18.268335   25.249665 N.4        1 MOL1        -0.5974
      24    H16     20.048045   17.384378   24.940427 H          1 MOL1         0.3625
      25    H17     21.370963   18.361412   24.791779 H          1 MOL1         0.3625
      26    H18     20.630773   18.191659   26.256410 H          1 MOL1         0.3625
@<TRIPOS>BOND
    1     1     2    1
    2     1     3    1
    3     1     4    1
    4     1     5    1
    5     5     6    1
    6     5     7    1
    7     5     8    1
    8     8     9    1
    9     8    10    1
   10     8    11    1
   11    11    12    1
   12    11    13    1
   13    11    14    1
   14    14    15    1
   15    14    16    1
   16    14    17    1
   17    17    18    1
   18    17    19    1
   19    19    20    1
   20    19    21    1
   21    19    22    1
   22    17    23    1
   23    23    24    1
   24    23    25    1
   25    23    26    1
@<TRIPOS>SUBSTRUCTURE
       1 MOL1            1 RESIDUE      1      MOL     
@<SCITEGIC>MOL_PROPERTY
VM2 Rank
SciTegic.value.IntegerValue
41

@<SCITEGIC>MOL_PROPERTY
Conf_Id
SciTegic.value.IntegerValue
555

@<SCITEGIC>MOL_PROPERTY
Probability
SciTegic.value.DoubleValue
0.05

@<SCITEGIC>MOL_PROPERTY
Sum Probability
SciTegic.value.DoubleValue
99.19

@<SCITEGIC>MOL_PROPERTY
Delta G
SciTegic.value.DoubleValue
3.467

@<SCITEGIC>MOL_PROPERTY
G
SciTegic.value.DoubleValue
27.179

@<SCITEGIC>MOL_PROPERTY
E
SciTegic.value.DoubleValue
-5.706

@<SCITEGIC>MOL_PROPERTY
-TS
SciTegic.value.DoubleValue
32.886

@<SCITEGIC>MOL_PROPERTY
U+W
SciTegic.value.DoubleValue
-27.168

@<SCITEGIC>MOL_PROPERTY
U
SciTegic.value.DoubleValue
27.046

@<SCITEGIC>MOL_PROPERTY
W
SciTegic.value.DoubleValue
-54.215

@<SCITEGIC>MOL_PROPERTY
W(PB)
SciTegic.value.DoubleValue
-56.481

@<SCITEGIC>MOL_PROPERTY
W(SA)
SciTegic.value.DoubleValue
2.266

@<SCITEGIC>MOL_PROPERTY
Valence
SciTegic.value.DoubleValue
5.686

@<SCITEGIC>MOL_PROPERTY
Coulomb
SciTegic.value.DoubleValue
20.401

@<SCITEGIC>MOL_PROPERTY
VdW
SciTegic.value.DoubleValue
0.959

@<SCITEGIC>MOL_PROPERTY
VdW6
SciTegic.value.DoubleValue
-8.445

@<SCITEGIC>MOL_PROPERTY
VdW12
SciTegic.value.DoubleValue
9.404

@<SCITEGIC>MOL_PROPERTY
Bond
SciTegic.value.DoubleValue
0.263

@<SCITEGIC>MOL_PROPERTY
Angle
SciTegic.value.DoubleValue
1.662

@<SCITEGIC>MOL_PROPERTY
Pdih
SciTegic.value.DoubleValue
3.760

@<SCITEGIC>MOL_PROPERTY
Idih
SciTegic.value.DoubleValue
0.000

@<SCITEGIC>MOL_PROPERTY
Tether
SciTegic.value.DoubleValue
0.000

@<TRIPOS>MOLECULE
guest-s13_vm2.mol2 : vm2 ligand conformer 42
          26          25           1
SMALL
USER_CHARGES
 
@<TRIPOS>ATOM
       1    C1      21.236219   19.327994   19.874473 C.3        1 MOL1        -0.2398
       2    H1      21.902245   18.486088   20.104346 H          1 MOL1         0.0972
       3    H2      20.658585   19.071783   18.976735 H          1 MOL1         0.0972
       4    H3      21.862351   20.197281   19.634998 H          1 MOL1         0.0972
       5    C2      20.304518   19.638800   21.064970 C.3        1 MOL1        -0.1383
       6    H4      19.674283   20.503424   20.814251 H          1 MOL1         0.0961
       7    H5      20.917168   19.934362   21.923928 H          1 MOL1         0.0961
       8    C3      19.408959   18.426504   21.417086 C.3        1 MOL1        -0.1407
       9    H6      18.847259   18.147675   20.514687 H          1 MOL1         0.0961
      10    H7      20.028708   17.554711   21.668107 H          1 MOL1         0.0961
      11    C4      18.388402   18.700016   22.553097 C.3        1 MOL1        -0.1407
      12    H8      17.514837   18.056704   22.378628 H          1 MOL1         0.0961
      13    H9      18.006203   19.727161   22.488054 H          1 MOL1         0.0961
      14    C5      18.905808   18.388086   23.984004 C.3        1 MOL1        -0.1472
      15    H10     18.073201   18.500851   24.691025 H          1 MOL1         0.0961
      16    H11     19.191206   17.328611   24.023730 H          1 MOL1         0.0961
      17    C6      20.097034   19.240095   24.477226 C.3        1 MOL1         0.1190
      18    H12     20.919853   19.128079   23.766618 H          1 MOL1         0.0923
      19    C7      19.732280   20.731661   24.587782 C.3        1 MOL1        -0.2463
      20    H13     19.456851   21.150510   23.613340 H          1 MOL1         0.0972
      21    H14     20.584994   21.311170   24.962311 H          1 MOL1         0.0972
      22    H15     18.890321   20.883236   25.274612 H          1 MOL1         0.0972
      23    N1      20.614780   18.734843   25.795362 N.4        1 MOL1        -0.5974
      24    H16     19.903369   18.803238   26.527958 H          1 MOL1         0.3625
      25    H17     20.902573   17.753835   25.736978 H          1 MOL1         0.3625
      26    H18     21.427983   19.272218   26.108974 H          1 MOL1         0.3625
@<TRIPOS>BOND
    1     1     2    1
    2     1     3    1
    3     1     4    1
    4     1     5    1
    5     5     6    1
    6     5     7    1
    7     5     8    1
    8     8     9    1
    9     8    10    1
   10     8    11    1
   11    11    12    1
   12    11    13    1
   13    11    14    1
   14    14    15    1
   15    14    16    1
   16    14    17    1
   17    17    18    1
   18    17    19    1
   19    19    20    1
   20    19    21    1
   21    19    22    1
   22    17    23    1
   23    23    24    1
   24    23    25    1
   25    23    26    1
@<TRIPOS>SUBSTRUCTURE
       1 MOL1            1 RESIDUE      1      MOL     
@<SCITEGIC>MOL_PROPERTY
VM2 Rank
SciTegic.value.IntegerValue
42

@<SCITEGIC>MOL_PROPERTY
Conf_Id
SciTegic.value.IntegerValue
989

@<SCITEGIC>MOL_PROPERTY
Probability
SciTegic.value.DoubleValue
0.05

@<SCITEGIC>MOL_PROPERTY
Sum Probability
SciTegic.value.DoubleValue
99.24

@<SCITEGIC>MOL_PROPERTY
Delta G
SciTegic.value.DoubleValue
3.473

@<SCITEGIC>MOL_PROPERTY
G
SciTegic.value.DoubleValue
27.185

@<SCITEGIC>MOL_PROPERTY
E
SciTegic.value.DoubleValue
-6.001

@<SCITEGIC>MOL_PROPERTY
-TS
SciTegic.value.DoubleValue
33.186

@<SCITEGIC>MOL_PROPERTY
U+W
SciTegic.value.DoubleValue
-27.463

@<SCITEGIC>MOL_PROPERTY
U
SciTegic.value.DoubleValue
26.923

@<SCITEGIC>MOL_PROPERTY
W
SciTegic.value.DoubleValue
-54.386

@<SCITEGIC>MOL_PROPERTY
W(PB)
SciTegic.value.DoubleValue
-56.637

@<SCITEGIC>MOL_PROPERTY
W(SA)
SciTegic.value.DoubleValue
2.251

@<SCITEGIC>MOL_PROPERTY
Valence
SciTegic.value.DoubleValue
5.933

@<SCITEGIC>MOL_PROPERTY
Coulomb
SciTegic.value.DoubleValue
20.334

@<SCITEGIC>MOL_PROPERTY
VdW
SciTegic.value.DoubleValue
0.657

@<SCITEGIC>MOL_PROPERTY
VdW6
SciTegic.value.DoubleValue
-9.078

@<SCITEGIC>MOL_PROPERTY
VdW12
SciTegic.value.DoubleValue
9.735

@<SCITEGIC>MOL_PROPERTY
Bond
SciTegic.value.DoubleValue
0.268

@<SCITEGIC>MOL_PROPERTY
Angle
SciTegic.value.DoubleValue
2.252

@<SCITEGIC>MOL_PROPERTY
Pdih
SciTegic.value.DoubleValue
3.412

@<SCITEGIC>MOL_PROPERTY
Idih
SciTegic.value.DoubleValue
0.000

@<SCITEGIC>MOL_PROPERTY
Tether
SciTegic.value.DoubleValue
0.000

@<TRIPOS>MOLECULE
guest-s13_vm2.mol2 : vm2 ligand conformer 43
          26          25           1
SMALL
USER_CHARGES
 
@<TRIPOS>ATOM
       1    C1      21.236797   19.152973   19.806861 C.3        1 MOL1        -0.2398
       2    H1      20.651740   19.671801   19.036307 H          1 MOL1         0.0972
       3    H2      22.250315   19.574605   19.800312 H          1 MOL1         0.0972
       4    H3      21.310256   18.094308   19.525613 H          1 MOL1         0.0972
       5    C2      20.589044   19.313174   21.198600 C.3        1 MOL1        -0.1383
       6    H4      20.551455   20.379295   21.462580 H          1 MOL1         0.0961
       7    H5      21.226489   18.814539   21.939959 H          1 MOL1         0.0961
       8    C3      19.166049   18.710397   21.237396 C.3        1 MOL1        -0.1407
       9    H6      18.595498   19.091710   20.379191 H          1 MOL1         0.0961
      10    H7      19.227712   17.621837   21.101411 H          1 MOL1         0.0961
      11    C4      18.363401   19.026974   22.526113 C.3        1 MOL1        -0.1407
      12    H8      17.363523   18.588107   22.403865 H          1 MOL1         0.0961
      13    H9      18.196936   20.108116   22.605656 H          1 MOL1         0.0961
      14    C5      18.974269   18.457358   23.836154 C.3        1 MOL1        -0.1472
      15    H10     18.166869   18.304263   24.564562 H          1 MOL1         0.0961
      16    H11     19.380355   17.458590   23.628688 H          1 MOL1         0.0961
      17    C6      20.066389   19.333094   24.497826 C.3        1 MOL1         0.1190
      18    H12     20.808893   19.605143   23.744715 H          1 MOL1         0.0923
      19    C7      19.486209   20.629089   25.092964 C.3        1 MOL1        -0.2463
      20    H13     19.054565   21.270529   24.316690 H          1 MOL1         0.0972
      21    H14     20.271966   21.209508   25.591983 H          1 MOL1         0.0972
      22    H15     18.704678   20.411848   25.831659 H          1 MOL1         0.0972
      23    N1      20.805842   18.564940   25.558086 N.4        1 MOL1        -0.5974
      24    H16     20.180505   18.275670   26.314950 H          1 MOL1         0.3625
      25    H17     21.240149   17.719034   25.178123 H          1 MOL1         0.3625
      26    H18     21.551396   19.127959   25.977159 H          1 MOL1         0.3625
@<TRIPOS>BOND
    1     1     2    1
    2     1     3    1
    3     1     4    1
    4     1     5    1
    5     5     6    1
    6     5     7    1
    7     5     8    1
    8     8     9    1
    9     8    10    1
   10     8    11    1
   11    11    12    1
   12    11    13    1
   13    11    14    1
   14    14    15    1
   15    14    16    1
   16    14    17    1
   17    17    18    1
   18    17    19    1
   19    19    20    1
   20    19    21    1
   21    19    22    1
   22    17    23    1
   23    23    24    1
   24    23    25    1
   25    23    26    1
@<TRIPOS>SUBSTRUCTURE
       1 MOL1            1 RESIDUE      1      MOL     
@<SCITEGIC>MOL_PROPERTY
VM2 Rank
SciTegic.value.IntegerValue
43

@<SCITEGIC>MOL_PROPERTY
Conf_Id
SciTegic.value.IntegerValue
1042

@<SCITEGIC>MOL_PROPERTY
Probability
SciTegic.value.DoubleValue
0.05

@<SCITEGIC>MOL_PROPERTY
Sum Probability
SciTegic.value.DoubleValue
99.29

@<SCITEGIC>MOL_PROPERTY
Delta G
SciTegic.value.DoubleValue
3.520

@<SCITEGIC>MOL_PROPERTY
G
SciTegic.value.DoubleValue
27.232

@<SCITEGIC>MOL_PROPERTY
E
SciTegic.value.DoubleValue
-5.556

@<SCITEGIC>MOL_PROPERTY
-TS
SciTegic.value.DoubleValue
32.788

@<SCITEGIC>MOL_PROPERTY
U+W
SciTegic.value.DoubleValue
-27.018

@<SCITEGIC>MOL_PROPERTY
U
SciTegic.value.DoubleValue
27.379

@<SCITEGIC>MOL_PROPERTY
W
SciTegic.value.DoubleValue
-54.397

@<SCITEGIC>MOL_PROPERTY
W(PB)
SciTegic.value.DoubleValue
-56.652

@<SCITEGIC>MOL_PROPERTY
W(SA)
SciTegic.value.DoubleValue
2.255

@<SCITEGIC>MOL_PROPERTY
Valence
SciTegic.value.DoubleValue
5.925

@<SCITEGIC>MOL_PROPERTY
Coulomb
SciTegic.value.DoubleValue
20.578

@<SCITEGIC>MOL_PROPERTY
VdW
SciTegic.value.DoubleValue
0.876

@<SCITEGIC>MOL_PROPERTY
VdW6
SciTegic.value.DoubleValue
-8.774

@<SCITEGIC>MOL_PROPERTY
VdW12
SciTegic.value.DoubleValue
9.650

@<SCITEGIC>MOL_PROPERTY
Bond
SciTegic.value.DoubleValue
0.273

@<SCITEGIC>MOL_PROPERTY
Angle
SciTegic.value.DoubleValue
2.152

@<SCITEGIC>MOL_PROPERTY
Pdih
SciTegic.value.DoubleValue
3.500

@<SCITEGIC>MOL_PROPERTY
Idih
SciTegic.value.DoubleValue
0.000

@<SCITEGIC>MOL_PROPERTY
Tether
SciTegic.value.DoubleValue
0.000

@<TRIPOS>MOLECULE
guest-s13_vm2.mol2 : vm2 ligand conformer 44
          26          25           1
SMALL
USER_CHARGES
 
@<TRIPOS>ATOM
       1    C1      18.927155   18.992349   19.966374 C.3        1 MOL1        -0.2398
       2    H1      18.523175   19.668686   19.201994 H          1 MOL1         0.0972
       3    H2      18.866932   17.969993   19.571115 H          1 MOL1         0.0972
       4    H3      18.272881   19.053133   20.842985 H          1 MOL1         0.0972
       5    C2      20.389349   19.367862   20.302640 C.3        1 MOL1        -0.1383
       6    H4      20.450935   20.417234   20.622927 H          1 MOL1         0.0961
       7    H5      20.977342   19.300277   19.376560 H          1 MOL1         0.0961
       8    C3      21.033067   18.440312   21.365387 C.3        1 MOL1        -0.1407
       9    H6      20.580211   17.440217   21.321155 H          1 MOL1         0.0961
      10    H7      22.089552   18.297660   21.099013 H          1 MOL1         0.0961
      11    C4      20.987969   18.981622   22.817902 C.3        1 MOL1        -0.1407
      12    H8      21.539504   19.930586   22.869942 H          1 MOL1         0.0961
      13    H9      21.534341   18.274830   23.455780 H          1 MOL1         0.0961
      14    C5      19.557909   19.188314   23.376677 C.3        1 MOL1        -0.1472
      15    H10     19.053638   19.960987   22.783592 H          1 MOL1         0.0961
      16    H11     18.974991   18.264833   23.262493 H          1 MOL1         0.0961
      17    C6      19.545252   19.631968   24.855910 C.3        1 MOL1         0.1190
      18    H12     20.167571   20.527173   24.950955 H          1 MOL1         0.0923
      19    C7      18.115646   19.989769   25.293240 C.3        1 MOL1        -0.2463
      20    H13     18.103525   20.339086   26.333049 H          1 MOL1         0.0972
      21    H14     17.448047   19.122429   25.216095 H          1 MOL1         0.0972
      22    H15     17.705813   20.792965   24.668221 H          1 MOL1         0.0972
      23    N1      20.131653   18.595806   25.775869 N.4        1 MOL1        -0.5974
      24    H16     19.601725   17.721120   25.739041 H          1 MOL1         0.3625
      25    H17     21.100781   18.379930   25.528075 H          1 MOL1         0.3625
      26    H18     20.128947   18.914967   26.748752 H          1 MOL1         0.3625
@<TRIPOS>BOND
    1     1     2    1
    2     1     3    1
    3     1     4    1
    4     1     5    1
    5     5     6    1
    6     5     7    1
    7     5     8    1
    8     8     9    1
    9     8    10    1
   10     8    11    1
   11    11    12    1
   12    11    13    1
   13    11    14    1
   14    14    15    1
   15    14    16    1
   16    14    17    1
   17    17    18    1
   18    17    19    1
   19    19    20    1
   20    19    21    1
   21    19    22    1
   22    17    23    1
   23    23    24    1
   24    23    25    1
   25    23    26    1
@<TRIPOS>SUBSTRUCTURE
       1 MOL1            1 RESIDUE      1      MOL     
@<SCITEGIC>MOL_PROPERTY
VM2 Rank
SciTegic.value.IntegerValue
44

@<SCITEGIC>MOL_PROPERTY
Conf_Id
SciTegic.value.IntegerValue
126

@<SCITEGIC>MOL_PROPERTY
Probability
SciTegic.value.DoubleValue
0.05

@<SCITEGIC>MOL_PROPERTY
Sum Probability
SciTegic.value.DoubleValue
99.33

@<SCITEGIC>MOL_PROPERTY
Delta G
SciTegic.value.DoubleValue
3.527

@<SCITEGIC>MOL_PROPERTY
G
SciTegic.value.DoubleValue
27.239

@<SCITEGIC>MOL_PROPERTY
E
SciTegic.value.DoubleValue
-5.652

@<SCITEGIC>MOL_PROPERTY
-TS
SciTegic.value.DoubleValue
32.891

@<SCITEGIC>MOL_PROPERTY
U+W
SciTegic.value.DoubleValue
-27.114

@<SCITEGIC>MOL_PROPERTY
U
SciTegic.value.DoubleValue
26.879

@<SCITEGIC>MOL_PROPERTY
W
SciTegic.value.DoubleValue
-53.994

@<SCITEGIC>MOL_PROPERTY
W(PB)
SciTegic.value.DoubleValue
-56.259

@<SCITEGIC>MOL_PROPERTY
W(SA)
SciTegic.value.DoubleValue
2.265

@<SCITEGIC>MOL_PROPERTY
Valence
SciTegic.value.DoubleValue
5.789

@<SCITEGIC>MOL_PROPERTY
Coulomb
SciTegic.value.DoubleValue
20.012

@<SCITEGIC>MOL_PROPERTY
VdW
SciTegic.value.DoubleValue
1.078

@<SCITEGIC>MOL_PROPERTY
VdW6
SciTegic.value.DoubleValue
-8.363

@<SCITEGIC>MOL_PROPERTY
VdW12
SciTegic.value.DoubleValue
9.441

@<SCITEGIC>MOL_PROPERTY
Bond
SciTegic.value.DoubleValue
0.261

@<SCITEGIC>MOL_PROPERTY
Angle
SciTegic.value.DoubleValue
1.699

@<SCITEGIC>MOL_PROPERTY
Pdih
SciTegic.value.DoubleValue
3.829

@<SCITEGIC>MOL_PROPERTY
Idih
SciTegic.value.DoubleValue
0.000

@<SCITEGIC>MOL_PROPERTY
Tether
SciTegic.value.DoubleValue
0.000

@<TRIPOS>MOLECULE
guest-s13_vm2.mol2 : vm2 ligand conformer 45
          26          25           1
SMALL
USER_CHARGES
 
@<TRIPOS>ATOM
       1    C1      19.297621   19.844182   20.285284 C.3        1 MOL1        -0.2398
       2    H1      19.132458   20.176994   19.252400 H          1 MOL1         0.0972
       3    H2      18.416754   19.262870   20.581737 H          1 MOL1         0.0972
       4    H3      19.362264   20.737349   20.920081 H          1 MOL1         0.0972
       5    C2      20.584630   18.996462   20.377367 C.3        1 MOL1        -0.1383
       6    H4      21.388488   19.525466   19.846527 H          1 MOL1         0.0961
       7    H5      20.438386   18.049713   19.838908 H          1 MOL1         0.0961
       8    C3      21.066569   18.708246   21.822214 C.3        1 MOL1        -0.1407
       9    H6      22.020343   18.168531   21.741959 H          1 MOL1         0.0961
      10    H7      21.310439   19.649943   22.329141 H          1 MOL1         0.0961
      11    C4      20.104872   17.840220   22.680563 C.3        1 MOL1        -0.1407
      12    H8      20.705920   17.251370   23.386159 H          1 MOL1         0.0961
      13    H9      19.610104   17.099539   22.037511 H          1 MOL1         0.0961
      14    C5      19.030334   18.621797   23.487063 C.3        1 MOL1        -0.1472
      15    H10     18.334227   19.114518   22.800639 H          1 MOL1         0.0961
      16    H11     18.426606   17.900887   24.054100 H          1 MOL1         0.0961
      17    C6      19.599248   19.677159   24.462565 C.3        1 MOL1         0.1190
      18    H12     20.169877   20.410260   23.885536 H          1 MOL1         0.0923
      19    C7      18.455961   20.418622   25.173473 C.3        1 MOL1        -0.2463
      20    H13     17.850114   19.730526   25.776253 H          1 MOL1         0.0972
      21    H14     17.796149   20.906738   24.445369 H          1 MOL1         0.0972
      22    H15     18.851755   21.196788   25.837661 H          1 MOL1         0.0972
      23    N1      20.548765   19.081312   25.465470 N.4        1 MOL1        -0.5974
      24    H16     21.336053   18.619611   25.002175 H          1 MOL1         0.3625
      25    H17     20.934684   19.796880   26.087813 H          1 MOL1         0.3625
      26    H18     20.082920   18.383672   26.051520 H          1 MOL1         0.3625
@<TRIPOS>BOND
    1     1     2    1
    2     1     3    1
    3     1     4    1
    4     1     5    1
    5     5     6    1
    6     5     7    1
    7     5     8    1
    8     8     9    1
    9     8    10    1
   10     8    11    1
   11    11    12    1
   12    11    13    1
   13    11    14    1
   14    14    15    1
   15    14    16    1
   16    14    17    1
   17    17    18    1
   18    17    19    1
   19    19    20    1
   20    19    21    1
   21    19    22    1
   22    17    23    1
   23    23    24    1
   24    23    25    1
   25    23    26    1
@<TRIPOS>SUBSTRUCTURE
       1 MOL1            1 RESIDUE      1      MOL     
@<SCITEGIC>MOL_PROPERTY
VM2 Rank
SciTegic.value.IntegerValue
45

@<SCITEGIC>MOL_PROPERTY
Conf_Id
SciTegic.value.IntegerValue
235

@<SCITEGIC>MOL_PROPERTY
Probability
SciTegic.value.DoubleValue
0.04

@<SCITEGIC>MOL_PROPERTY
Sum Probability
SciTegic.value.DoubleValue
99.37

@<SCITEGIC>MOL_PROPERTY
Delta G
SciTegic.value.DoubleValue
3.612

@<SCITEGIC>MOL_PROPERTY
G
SciTegic.value.DoubleValue
27.325

@<SCITEGIC>MOL_PROPERTY
E
SciTegic.value.DoubleValue
-5.201

@<SCITEGIC>MOL_PROPERTY
-TS
SciTegic.value.DoubleValue
32.526

@<SCITEGIC>MOL_PROPERTY
U+W
SciTegic.value.DoubleValue
-26.663

@<SCITEGIC>MOL_PROPERTY
U
SciTegic.value.DoubleValue
27.543

@<SCITEGIC>MOL_PROPERTY
W
SciTegic.value.DoubleValue
-54.206

@<SCITEGIC>MOL_PROPERTY
W(PB)
SciTegic.value.DoubleValue
-56.436

@<SCITEGIC>MOL_PROPERTY
W(SA)
SciTegic.value.DoubleValue
2.230

@<SCITEGIC>MOL_PROPERTY
Valence
SciTegic.value.DoubleValue
6.185

@<SCITEGIC>MOL_PROPERTY
Coulomb
SciTegic.value.DoubleValue
20.489

@<SCITEGIC>MOL_PROPERTY
VdW
SciTegic.value.DoubleValue
0.869

@<SCITEGIC>MOL_PROPERTY
VdW6
SciTegic.value.DoubleValue
-9.298

@<SCITEGIC>MOL_PROPERTY
VdW12
SciTegic.value.DoubleValue
10.167

@<SCITEGIC>MOL_PROPERTY
Bond
SciTegic.value.DoubleValue
0.324

@<SCITEGIC>MOL_PROPERTY
Angle
SciTegic.value.DoubleValue
2.315

@<SCITEGIC>MOL_PROPERTY
Pdih
SciTegic.value.DoubleValue
3.546

@<SCITEGIC>MOL_PROPERTY
Idih
SciTegic.value.DoubleValue
0.000

@<SCITEGIC>MOL_PROPERTY
Tether
SciTegic.value.DoubleValue
0.000

@<TRIPOS>MOLECULE
guest-s13_vm2.mol2 : vm2 ligand conformer 46
          26          25           1
SMALL
USER_CHARGES
 
@<TRIPOS>ATOM
       1    C1      20.280613   19.118996   19.303765 C.3        1 MOL1        -0.2398
       2    H1      20.937247   19.064134   18.425841 H          1 MOL1         0.0972
       3    H2      19.330925   18.633947   19.043303 H          1 MOL1         0.0972
       4    H3      20.082934   20.179876   19.501057 H          1 MOL1         0.0972
       5    C2      20.942779   18.428922   20.517944 C.3        1 MOL1        -0.1383
       6    H4      21.873271   18.952641   20.778019 H          1 MOL1         0.0961
       7    H5      21.234654   17.409545   20.228914 H          1 MOL1         0.0961
       8    C3      20.022435   18.348117   21.759892 C.3        1 MOL1        -0.1407
       9    H6      19.103872   17.805581   21.496782 H          1 MOL1         0.0961
      10    H7      20.526821   17.739107   22.518088 H          1 MOL1         0.0961
      11    C4      19.653628   19.737069   22.342935 C.3        1 MOL1        -0.1407
      12    H8      19.063165   20.281626   21.594395 H          1 MOL1         0.0961
      13    H9      20.559201   20.336349   22.510606 H          1 MOL1         0.0961
      14    C5      18.816812   19.664559   23.647492 C.3        1 MOL1        -0.1472
      15    H10     18.163327   20.546782   23.675245 H          1 MOL1         0.0961
      16    H11     18.146936   18.794768   23.623569 H          1 MOL1         0.0961
      17    C6      19.658204   19.663157   24.945482 C.3        1 MOL1         0.1190
      18    H12     20.297813   20.551099   24.935705 H          1 MOL1         0.0923
      19    C7      18.738801   19.749070   26.174526 C.3        1 MOL1        -0.2463
      20    H13     18.073574   18.878539   26.234143 H          1 MOL1         0.0972
      21    H14     18.116949   20.652081   26.134738 H          1 MOL1         0.0972
      22    H15     19.328393   19.792554   27.098584 H          1 MOL1         0.0972
      23    N1      20.574727   18.478110   25.061963 N.4        1 MOL1        -0.5974
      24    H16     21.130693   18.518224   25.920898 H          1 MOL1         0.3625
      25    H17     20.048822   17.600422   25.076533 H          1 MOL1         0.3625
      26    H18     21.227447   18.438271   24.274692 H          1 MOL1         0.3625
@<TRIPOS>BOND
    1     1     2    1
    2     1     3    1
    3     1     4    1
    4     1     5    1
    5     5     6    1
    6     5     7    1
    7     5     8    1
    8     8     9    1
    9     8    10    1
   10     8    11    1
   11    11    12    1
   12    11    13    1
   13    11    14    1
   14    14    15    1
   15    14    16    1
   16    14    17    1
   17    17    18    1
   18    17    19    1
   19    19    20    1
   20    19    21    1
   21    19    22    1
   22    17    23    1
   23    23    24    1
   24    23    25    1
   25    23    26    1
@<TRIPOS>SUBSTRUCTURE
       1 MOL1            1 RESIDUE      1      MOL     
@<SCITEGIC>MOL_PROPERTY
VM2 Rank
SciTegic.value.IntegerValue
46

@<SCITEGIC>MOL_PROPERTY
Conf_Id
SciTegic.value.IntegerValue
277

@<SCITEGIC>MOL_PROPERTY
Probability
SciTegic.value.DoubleValue
0.04

@<SCITEGIC>MOL_PROPERTY
Sum Probability
SciTegic.value.DoubleValue
99.41

@<SCITEGIC>MOL_PROPERTY
Delta G
SciTegic.value.DoubleValue
3.667

@<SCITEGIC>MOL_PROPERTY
G
SciTegic.value.DoubleValue
27.380

@<SCITEGIC>MOL_PROPERTY
E
SciTegic.value.DoubleValue
-5.272

@<SCITEGIC>MOL_PROPERTY
-TS
SciTegic.value.DoubleValue
32.651

@<SCITEGIC>MOL_PROPERTY
U+W
SciTegic.value.DoubleValue
-26.733

@<SCITEGIC>MOL_PROPERTY
U
SciTegic.value.DoubleValue
27.192

@<SCITEGIC>MOL_PROPERTY
W
SciTegic.value.DoubleValue
-53.925

@<SCITEGIC>MOL_PROPERTY
W(PB)
SciTegic.value.DoubleValue
-56.221

@<SCITEGIC>MOL_PROPERTY
W(SA)
SciTegic.value.DoubleValue
2.295

@<SCITEGIC>MOL_PROPERTY
Valence
SciTegic.value.DoubleValue
5.378

@<SCITEGIC>MOL_PROPERTY
Coulomb
SciTegic.value.DoubleValue
20.710

@<SCITEGIC>MOL_PROPERTY
VdW
SciTegic.value.DoubleValue
1.105

@<SCITEGIC>MOL_PROPERTY
VdW6
SciTegic.value.DoubleValue
-8.250

@<SCITEGIC>MOL_PROPERTY
VdW12
SciTegic.value.DoubleValue
9.354

@<SCITEGIC>MOL_PROPERTY
Bond
SciTegic.value.DoubleValue
0.276

@<SCITEGIC>MOL_PROPERTY
Angle
SciTegic.value.DoubleValue
1.582

@<SCITEGIC>MOL_PROPERTY
Pdih
SciTegic.value.DoubleValue
3.520

@<SCITEGIC>MOL_PROPERTY
Idih
SciTegic.value.DoubleValue
0.000

@<SCITEGIC>MOL_PROPERTY
Tether
SciTegic.value.DoubleValue
0.000

@<TRIPOS>MOLECULE
guest-s13_vm2.mol2 : vm2 ligand conformer 47
          26          25           1
SMALL
USER_CHARGES
 
@<TRIPOS>ATOM
       1    C1      19.301132   17.906166   20.458382 C.3        1 MOL1        -0.2398
       2    H1      18.762868   17.517258   19.584373 H          1 MOL1         0.0972
       3    H2      20.017457   17.139333   20.780400 H          1 MOL1         0.0972
       4    H3      18.563618   18.054880   21.256549 H          1 MOL1         0.0972
       5    C2      20.018999   19.227026   20.105501 C.3        1 MOL1        -0.1383
       6    H4      19.270809   19.993172   19.858608 H          1 MOL1         0.0961
       7    H5      20.609588   19.073506   19.191496 H          1 MOL1         0.0961
       8    C3      20.961488   19.759384   21.215130 C.3        1 MOL1        -0.1407
       9    H6      21.779214   19.046616   21.389101 H          1 MOL1         0.0961
      10    H7      21.440934   20.670495   20.831149 H          1 MOL1         0.0961
      11    C4      20.257236   20.111414   22.551770 C.3        1 MOL1        -0.1407
      12    H8      19.226193   20.428606   22.349521 H          1 MOL1         0.0961
      13    H9      20.763575   20.981713   22.991820 H          1 MOL1         0.0961
      14    C5      20.293865   18.958378   23.589556 C.3        1 MOL1        -0.1472
      15    H10     19.779411   18.071850   23.202438 H          1 MOL1         0.0961
      16    H11     21.340495   18.663535   23.741344 H          1 MOL1         0.0961
      17    C6      19.692733   19.340733   24.961272 C.3        1 MOL1         0.1190
      18    H12     20.181057   20.257019   25.307142 H          1 MOL1         0.0923
      19    C7      18.177005   19.596442   24.877654 C.3        1 MOL1        -0.2463
      20    H13     17.648792   18.723192   24.475044 H          1 MOL1         0.0972
      21    H14     17.951556   20.458544   24.239688 H          1 MOL1         0.0972
      22    H15     17.766627   19.813405   25.871547 H          1 MOL1         0.0972
      23    N1      19.985542   18.288457   25.994736 N.4        1 MOL1        -0.5974
      24    H16     19.622641   18.556049   26.914057 H          1 MOL1         0.3625
      25    H17     19.558925   17.391612   25.747557 H          1 MOL1         0.3625
      26    H18     20.992130   18.132066   26.099336 H          1 MOL1         0.3625
@<TRIPOS>BOND
    1     1     2    1
    2     1     3    1
    3     1     4    1
    4     1     5    1
    5     5     6    1
    6     5     7    1
    7     5     8    1
    8     8     9    1
    9     8    10    1
   10     8    11    1
   11    11    12    1
   12    11    13    1
   13    11    14    1
   14    14    15    1
   15    14    16    1
   16    14    17    1
   17    17    18    1
   18    17    19    1
   19    19    20    1
   20    19    21    1
   21    19    22    1
   22    17    23    1
   23    23    24    1
   24    23    25    1
   25    23    26    1
@<TRIPOS>SUBSTRUCTURE
       1 MOL1            1 RESIDUE      1      MOL     
@<SCITEGIC>MOL_PROPERTY
VM2 Rank
SciTegic.value.IntegerValue
47

@<SCITEGIC>MOL_PROPERTY
Conf_Id
SciTegic.value.IntegerValue
214

@<SCITEGIC>MOL_PROPERTY
Probability
SciTegic.value.DoubleValue
0.04

@<SCITEGIC>MOL_PROPERTY
Sum Probability
SciTegic.value.DoubleValue
99.45

@<SCITEGIC>MOL_PROPERTY
Delta G
SciTegic.value.DoubleValue
3.670

@<SCITEGIC>MOL_PROPERTY
G
SciTegic.value.DoubleValue
27.382

@<SCITEGIC>MOL_PROPERTY
E
SciTegic.value.DoubleValue
-5.486

@<SCITEGIC>MOL_PROPERTY
-TS
SciTegic.value.DoubleValue
32.868

@<SCITEGIC>MOL_PROPERTY
U+W
SciTegic.value.DoubleValue
-26.948

@<SCITEGIC>MOL_PROPERTY
U
SciTegic.value.DoubleValue
27.261

@<SCITEGIC>MOL_PROPERTY
W
SciTegic.value.DoubleValue
-54.209

@<SCITEGIC>MOL_PROPERTY
W(PB)
SciTegic.value.DoubleValue
-56.472

@<SCITEGIC>MOL_PROPERTY
W(SA)
SciTegic.value.DoubleValue
2.263

@<SCITEGIC>MOL_PROPERTY
Valence
SciTegic.value.DoubleValue
6.230

@<SCITEGIC>MOL_PROPERTY
Coulomb
SciTegic.value.DoubleValue
19.945

@<SCITEGIC>MOL_PROPERTY
VdW
SciTegic.value.DoubleValue
1.087

@<SCITEGIC>MOL_PROPERTY
VdW6
SciTegic.value.DoubleValue
-8.618

@<SCITEGIC>MOL_PROPERTY
VdW12
SciTegic.value.DoubleValue
9.705

@<SCITEGIC>MOL_PROPERTY
Bond
SciTegic.value.DoubleValue
0.277

@<SCITEGIC>MOL_PROPERTY
Angle
SciTegic.value.DoubleValue
1.929

@<SCITEGIC>MOL_PROPERTY
Pdih
SciTegic.value.DoubleValue
4.024

@<SCITEGIC>MOL_PROPERTY
Idih
SciTegic.value.DoubleValue
0.000

@<SCITEGIC>MOL_PROPERTY
Tether
SciTegic.value.DoubleValue
0.000

@<TRIPOS>MOLECULE
guest-s13_vm2.mol2 : vm2 ligand conformer 48
          26          25           1
SMALL
USER_CHARGES
 
@<TRIPOS>ATOM
       1    C1      19.287951   18.452201   19.855326 C.3        1 MOL1        -0.2398
       2    H1      19.376773   18.244416   18.781152 H          1 MOL1         0.0972
       3    H2      18.747578   17.614885   20.315623 H          1 MOL1         0.0972
       4    H3      18.678781   19.357788   19.966903 H          1 MOL1         0.0972
       5    C2      20.686344   18.627597   20.489753 C.3        1 MOL1        -0.1383
       6    H4      21.196442   19.484934   20.028729 H          1 MOL1         0.0961
       7    H5      21.296344   17.744359   20.253991 H          1 MOL1         0.0961
       8    C3      20.643293   18.807278   22.026204 C.3        1 MOL1        -0.1407
       9    H6      20.156794   17.929073   22.467700 H          1 MOL1         0.0961
      10    H7      21.674849   18.827340   22.403874 H          1 MOL1         0.0961
      11    C4      19.912161   20.099180   22.469410 C.3        1 MOL1        -0.1407
      12    H8      18.843589   20.027198   22.229651 H          1 MOL1         0.0961
      13    H9      20.294878   20.939597   21.874211 H          1 MOL1         0.0961
      14    C5      20.089311   20.460786   23.971162 C.3        1 MOL1        -0.1472
      15    H10     21.151081   20.650093   24.176246 H          1 MOL1         0.0961
      16    H11     19.584450   21.420176   24.144973 H          1 MOL1         0.0961
      17    C6      19.546937   19.451942   25.015804 C.3        1 MOL1         0.1190
      18    H12     19.561199   19.962338   25.983822 H          1 MOL1         0.0923
      19    C7      18.090781   19.041050   24.735854 C.3        1 MOL1        -0.2463
      20    H13     17.693002   18.446030   25.566991 H          1 MOL1         0.0972
      21    H14     18.008073   18.439258   23.822886 H          1 MOL1         0.0972
      22    H15     17.451949   19.925897   24.624243 H          1 MOL1         0.0972
      23    N1      20.431223   18.247967   25.190488 N.4        1 MOL1        -0.5974
      24    H16     20.079452   17.630246   25.927514 H          1 MOL1         0.3625
      25    H17     20.487745   17.700280   24.329626 H          1 MOL1         0.3625
      26    H18     21.384681   18.517982   25.448310 H          1 MOL1         0.3625
@<TRIPOS>BOND
    1     1     2    1
    2     1     3    1
    3     1     4    1
    4     1     5    1
    5     5     6    1
    6     5     7    1
    7     5     8    1
    8     8     9    1
    9     8    10    1
   10     8    11    1
   11    11    12    1
   12    11    13    1
   13    11    14    1
   14    14    15    1
   15    14    16    1
   16    14    17    1
   17    17    18    1
   18    17    19    1
   19    19    20    1
   20    19    21    1
   21    19    22    1
   22    17    23    1
   23    23    24    1
   24    23    25    1
   25    23    26    1
@<TRIPOS>SUBSTRUCTURE
       1 MOL1            1 RESIDUE      1      MOL     
@<SCITEGIC>MOL_PROPERTY
VM2 Rank
SciTegic.value.IntegerValue
48

@<SCITEGIC>MOL_PROPERTY
Conf_Id
SciTegic.value.IntegerValue
544

@<SCITEGIC>MOL_PROPERTY
Probability
SciTegic.value.DoubleValue
0.03

@<SCITEGIC>MOL_PROPERTY
Sum Probability
SciTegic.value.DoubleValue
99.48

@<SCITEGIC>MOL_PROPERTY
Delta G
SciTegic.value.DoubleValue
3.768

@<SCITEGIC>MOL_PROPERTY
G
SciTegic.value.DoubleValue
27.480

@<SCITEGIC>MOL_PROPERTY
E
SciTegic.value.DoubleValue
-5.788

@<SCITEGIC>MOL_PROPERTY
-TS
SciTegic.value.DoubleValue
33.268

@<SCITEGIC>MOL_PROPERTY
U+W
SciTegic.value.DoubleValue
-27.250

@<SCITEGIC>MOL_PROPERTY
U
SciTegic.value.DoubleValue
27.148

@<SCITEGIC>MOL_PROPERTY
W
SciTegic.value.DoubleValue
-54.398

@<SCITEGIC>MOL_PROPERTY
W(PB)
SciTegic.value.DoubleValue
-56.624

@<SCITEGIC>MOL_PROPERTY
W(SA)
SciTegic.value.DoubleValue
2.226

@<SCITEGIC>MOL_PROPERTY
Valence
SciTegic.value.DoubleValue
5.072

@<SCITEGIC>MOL_PROPERTY
Coulomb
SciTegic.value.DoubleValue
21.223

@<SCITEGIC>MOL_PROPERTY
VdW
SciTegic.value.DoubleValue
0.852

@<SCITEGIC>MOL_PROPERTY
VdW6
SciTegic.value.DoubleValue
-9.599

@<SCITEGIC>MOL_PROPERTY
VdW12
SciTegic.value.DoubleValue
10.451

@<SCITEGIC>MOL_PROPERTY
Bond
SciTegic.value.DoubleValue
0.312

@<SCITEGIC>MOL_PROPERTY
Angle
SciTegic.value.DoubleValue
2.307

@<SCITEGIC>MOL_PROPERTY
Pdih
SciTegic.value.DoubleValue
2.452

@<SCITEGIC>MOL_PROPERTY
Idih
SciTegic.value.DoubleValue
0.000

@<SCITEGIC>MOL_PROPERTY
Tether
SciTegic.value.DoubleValue
0.000

@<TRIPOS>MOLECULE
guest-s13_vm2.mol2 : vm2 ligand conformer 49
          26          25           1
SMALL
USER_CHARGES
 
@<TRIPOS>ATOM
       1    C1      21.007571   19.712162   19.827855 C.3        1 MOL1        -0.2398
       2    H1      20.402318   20.622731   19.728928 H          1 MOL1         0.0972
       3    H2      22.062028   19.994237   19.711175 H          1 MOL1         0.0972
       4    H3      20.746650   19.036830   19.002571 H          1 MOL1         0.0972
       5    C2      20.772336   19.035996   21.195098 C.3        1 MOL1        -0.1383
       6    H4      21.088487   19.725372   21.985680 H          1 MOL1         0.0961
       7    H5      21.413814   18.147105   21.272165 H          1 MOL1         0.0961
       8    C3      19.290493   18.627675   21.378201 C.3        1 MOL1        -0.1407
       9    H6      18.640340   19.510543   21.307385 H          1 MOL1         0.0961
      10    H7      19.011944   17.979774   20.535432 H          1 MOL1         0.0961
      11    C4      19.000165   17.856050   22.692349 C.3        1 MOL1        -0.1407
      12    H8      19.836053   17.187658   22.937830 H          1 MOL1         0.0961
      13    H9      18.144155   17.192330   22.507390 H          1 MOL1         0.0961
      14    C5      18.630811   18.749824   23.907355 C.3        1 MOL1        -0.1472
      15    H10     17.746511   19.347409   23.648939 H          1 MOL1         0.0961
      16    H11     18.324451   18.101561   24.739127 H          1 MOL1         0.0961
      17    C6      19.748909   19.694703   24.397046 C.3        1 MOL1         0.1190
      18    H12     20.021439   20.361410   23.574830 H          1 MOL1         0.0923
      19    C7      19.243883   20.561902   25.561150 C.3        1 MOL1        -0.2463
      20    H13     18.369926   21.151436   25.257219 H          1 MOL1         0.0972
      21    H14     20.021090   21.263676   25.887980 H          1 MOL1         0.0972
      22    H15     18.957149   19.944593   26.421735 H          1 MOL1         0.0972
      23    N1      20.993832   18.949688   24.794946 N.4        1 MOL1        -0.5974
      24    H16     20.812452   18.313158   25.575542 H          1 MOL1         0.3625
      25    H17     21.355184   18.390112   24.018035 H          1 MOL1         0.3625
      26    H18     21.736971   19.590167   25.088178 H          1 MOL1         0.3625
@<TRIPOS>BOND
    1     1     2    1
    2     1     3    1
    3     1     4    1
    4     1     5    1
    5     5     6    1
    6     5     7    1
    7     5     8    1
    8     8     9    1
    9     8    10    1
   10     8    11    1
   11    11    12    1
   12    11    13    1
   13    11    14    1
   14    14    15    1
   15    14    16    1
   16    14    17    1
   17    17    18    1
   18    17    19    1
   19    19    20    1
   20    19    21    1
   21    19    22    1
   22    17    23    1
   23    23    24    1
   24    23    25    1
   25    23    26    1
@<TRIPOS>SUBSTRUCTURE
       1 MOL1            1 RESIDUE      1      MOL     
@<SCITEGIC>MOL_PROPERTY
VM2 Rank
SciTegic.value.IntegerValue
49

@<SCITEGIC>MOL_PROPERTY
Conf_Id
SciTegic.value.IntegerValue
307

@<SCITEGIC>MOL_PROPERTY
Probability
SciTegic.value.DoubleValue
0.03

@<SCITEGIC>MOL_PROPERTY
Sum Probability
SciTegic.value.DoubleValue
99.51

@<SCITEGIC>MOL_PROPERTY
Delta G
SciTegic.value.DoubleValue
3.781

@<SCITEGIC>MOL_PROPERTY
G
SciTegic.value.DoubleValue
27.493

@<SCITEGIC>MOL_PROPERTY
E
SciTegic.value.DoubleValue
-5.512

@<SCITEGIC>MOL_PROPERTY
-TS
SciTegic.value.DoubleValue
33.005

@<SCITEGIC>MOL_PROPERTY
U+W
SciTegic.value.DoubleValue
-26.974

@<SCITEGIC>MOL_PROPERTY
U
SciTegic.value.DoubleValue
27.041

@<SCITEGIC>MOL_PROPERTY
W
SciTegic.value.DoubleValue
-54.015

@<SCITEGIC>MOL_PROPERTY
W(PB)
SciTegic.value.DoubleValue
-56.287

@<SCITEGIC>MOL_PROPERTY
W(SA)
SciTegic.value.DoubleValue
2.272

@<SCITEGIC>MOL_PROPERTY
Valence
SciTegic.value.DoubleValue
5.411

@<SCITEGIC>MOL_PROPERTY
Coulomb
SciTegic.value.DoubleValue
21.047

@<SCITEGIC>MOL_PROPERTY
VdW
SciTegic.value.DoubleValue
0.584

@<SCITEGIC>MOL_PROPERTY
VdW6
SciTegic.value.DoubleValue
-8.849

@<SCITEGIC>MOL_PROPERTY
VdW12
SciTegic.value.DoubleValue
9.433

@<SCITEGIC>MOL_PROPERTY
Bond
SciTegic.value.DoubleValue
0.257

@<SCITEGIC>MOL_PROPERTY
Angle
SciTegic.value.DoubleValue
1.922

@<SCITEGIC>MOL_PROPERTY
Pdih
SciTegic.value.DoubleValue
3.232

@<SCITEGIC>MOL_PROPERTY
Idih
SciTegic.value.DoubleValue
0.000

@<SCITEGIC>MOL_PROPERTY
Tether
SciTegic.value.DoubleValue
0.000

@<TRIPOS>MOLECULE
guest-s13_vm2.mol2 : vm2 ligand conformer 50
          26          25           1
SMALL
USER_CHARGES
 
@<TRIPOS>ATOM
       1    C1      20.427838   17.684323   20.310140 C.3        1 MOL1        -0.2398
       2    H1      19.939723   16.915015   19.697924 H          1 MOL1         0.0972
       3    H2      21.431673   17.849776   19.897877 H          1 MOL1         0.0972
       4    H3      20.540775   17.279262   21.321478 H          1 MOL1         0.0972
       5    C2      19.601851   18.991738   20.293671 C.3        1 MOL1        -0.1383
       6    H4      18.581002   18.803091   20.654029 H          1 MOL1         0.0961
       7    H5      19.498350   19.312050   19.247437 H          1 MOL1         0.0961
       8    C3      20.253204   20.145590   21.099064 C.3        1 MOL1        -0.1407
       9    H6      21.348002   20.056412   21.074033 H          1 MOL1         0.0961
      10    H7      20.022367   21.090402   20.587697 H          1 MOL1         0.0961
      11    C4      19.760022   20.277130   22.563294 C.3        1 MOL1        -0.1407
      12    H8      18.677711   20.462514   22.558777 H          1 MOL1         0.0961
      13    H9      20.224070   21.170454   23.003813 H          1 MOL1         0.0961
      14    C5      20.081442   19.052597   23.455765 C.3        1 MOL1        -0.1472
      15    H10     19.479874   18.192475   23.136368 H          1 MOL1         0.0961
      16    H11     21.134497   18.778413   23.310007 H          1 MOL1         0.0961
      17    C6      19.843754   19.305578   24.961915 C.3        1 MOL1         0.1190
      18    H12     20.421065   20.187303   25.256768 H          1 MOL1         0.0923
      19    C7      18.360040   19.567435   25.277358 C.3        1 MOL1        -0.2463
      20    H13     18.004015   20.481421   24.787989 H          1 MOL1         0.0972
      21    H14     18.211676   19.698270   26.356325 H          1 MOL1         0.0972
      22    H15     17.730441   18.732208   24.946181 H          1 MOL1         0.0972
      23    N1      20.359849   18.163607   25.792793 N.4        1 MOL1        -0.5974
      24    H16     21.357591   17.999778   25.630732 H          1 MOL1         0.3625
      25    H17     20.240460   18.345405   26.793368 H          1 MOL1         0.3625
      26    H18     19.866436   17.292578   25.580034 H          1 MOL1         0.3625
@<TRIPOS>BOND
    1     1     2    1
    2     1     3    1
    3     1     4    1
    4     1     5    1
    5     5     6    1
    6     5     7    1
    7     5     8    1
    8     8     9    1
    9     8    10    1
   10     8    11    1
   11    11    12    1
   12    11    13    1
   13    11    14    1
   14    14    15    1
   15    14    16    1
   16    14    17    1
   17    17    18    1
   18    17    19    1
   19    19    20    1
   20    19    21    1
   21    19    22    1
   22    17    23    1
   23    23    24    1
   24    23    25    1
   25    23    26    1
@<TRIPOS>SUBSTRUCTURE
       1 MOL1            1 RESIDUE      1      MOL     
@<SCITEGIC>MOL_PROPERTY
VM2 Rank
SciTegic.value.IntegerValue
50

@<SCITEGIC>MOL_PROPERTY
Conf_Id
SciTegic.value.IntegerValue
191

@<SCITEGIC>MOL_PROPERTY
Probability
SciTegic.value.DoubleValue
0.03

@<SCITEGIC>MOL_PROPERTY
Sum Probability
SciTegic.value.DoubleValue
99.54

@<SCITEGIC>MOL_PROPERTY
Delta G
SciTegic.value.DoubleValue
3.783

@<SCITEGIC>MOL_PROPERTY
G
SciTegic.value.DoubleValue
27.496

@<SCITEGIC>MOL_PROPERTY
E
SciTegic.value.DoubleValue
-5.432

@<SCITEGIC>MOL_PROPERTY
-TS
SciTegic.value.DoubleValue
32.927

@<SCITEGIC>MOL_PROPERTY
U+W
SciTegic.value.DoubleValue
-26.893

@<SCITEGIC>MOL_PROPERTY
U
SciTegic.value.DoubleValue
27.268

@<SCITEGIC>MOL_PROPERTY
W
SciTegic.value.DoubleValue
-54.161

@<SCITEGIC>MOL_PROPERTY
W(PB)
SciTegic.value.DoubleValue
-56.431

@<SCITEGIC>MOL_PROPERTY
W(SA)
SciTegic.value.DoubleValue
2.270

@<SCITEGIC>MOL_PROPERTY
Valence
SciTegic.value.DoubleValue
6.201

@<SCITEGIC>MOL_PROPERTY
Coulomb
SciTegic.value.DoubleValue
19.968

@<SCITEGIC>MOL_PROPERTY
VdW
SciTegic.value.DoubleValue
1.099

@<SCITEGIC>MOL_PROPERTY
VdW6
SciTegic.value.DoubleValue
-8.560

@<SCITEGIC>MOL_PROPERTY
VdW12
SciTegic.value.DoubleValue
9.659

@<SCITEGIC>MOL_PROPERTY
Bond
SciTegic.value.DoubleValue
0.266

@<SCITEGIC>MOL_PROPERTY
Angle
SciTegic.value.DoubleValue
1.902

@<SCITEGIC>MOL_PROPERTY
Pdih
SciTegic.value.DoubleValue
4.034

@<SCITEGIC>MOL_PROPERTY
Idih
SciTegic.value.DoubleValue
0.000

@<SCITEGIC>MOL_PROPERTY
Tether
SciTegic.value.DoubleValue
0.000

@<TRIPOS>MOLECULE
guest-s13_vm2.mol2 : vm2 ligand conformer 51
          26          25           1
SMALL
USER_CHARGES
 
@<TRIPOS>ATOM
       1    C1      21.139725   19.245719   19.780355 C.3        1 MOL1        -0.2398
       2    H1      21.285337   19.229326   18.692488 H          1 MOL1         0.0972
       3    H2      21.619102   20.153315   20.169554 H          1 MOL1         0.0972
       4    H3      21.662109   18.375188   20.196137 H          1 MOL1         0.0972
       5    C2      19.633270   19.221286   20.124829 C.3        1 MOL1        -0.1383
       6    H4      19.182973   18.292527   19.747463 H          1 MOL1         0.0961
       7    H5      19.134365   20.043018   19.592245 H          1 MOL1         0.0961
       8    C3      19.347799   19.364454   21.639157 C.3        1 MOL1        -0.1407
       9    H6      19.778714   20.309289   21.995765 H          1 MOL1         0.0961
      10    H7      18.261108   19.437800   21.783400 H          1 MOL1         0.0961
      11    C4      19.892881   18.183803   22.479952 C.3        1 MOL1        -0.1407
      12    H8      20.990453   18.177831   22.445318 H          1 MOL1         0.0961
      13    H9      19.564551   17.239215   22.024862 H          1 MOL1         0.0961
      14    C5      19.436827   18.198342   23.961259 C.3        1 MOL1        -0.1472
      15    H10     18.342772   18.124328   24.021505 H          1 MOL1         0.0961
      16    H11     19.820817   17.282440   24.429668 H          1 MOL1         0.0961
      17    C6      19.941864   19.425094   24.759474 C.3        1 MOL1         0.1190
      18    H12     20.802528   19.846024   24.230590 H          1 MOL1         0.0923
      19    C7      18.857369   20.511120   24.883203 C.3        1 MOL1        -0.2463
      20    H13     17.992089   20.142502   25.448209 H          1 MOL1         0.0972
      21    H14     18.502149   20.840746   23.900953 H          1 MOL1         0.0972
      22    H15     19.251417   21.392253   25.404358 H          1 MOL1         0.0972
      23    N1      20.438266   19.038182   26.125770 N.4        1 MOL1        -0.5974
      24    H16     19.691362   18.628933   26.693499 H          1 MOL1         0.3625
      25    H17     21.195584   18.350985   26.070902 H          1 MOL1         0.3625
      26    H18     20.800000   19.849058   26.635814 H          1 MOL1         0.3625
@<TRIPOS>BOND
    1     1     2    1
    2     1     3    1
    3     1     4    1
    4     1     5    1
    5     5     6    1
    6     5     7    1
    7     5     8    1
    8     8     9    1
    9     8    10    1
   10     8    11    1
   11    11    12    1
   12    11    13    1
   13    11    14    1
   14    14    15    1
   15    14    16    1
   16    14    17    1
   17    17    18    1
   18    17    19    1
   19    19    20    1
   20    19    21    1
   21    19    22    1
   22    17    23    1
   23    23    24    1
   24    23    25    1
   25    23    26    1
@<TRIPOS>SUBSTRUCTURE
       1 MOL1            1 RESIDUE      1      MOL     
@<SCITEGIC>MOL_PROPERTY
VM2 Rank
SciTegic.value.IntegerValue
51

@<SCITEGIC>MOL_PROPERTY
Conf_Id
SciTegic.value.IntegerValue
190

@<SCITEGIC>MOL_PROPERTY
Probability
SciTegic.value.DoubleValue
0.03

@<SCITEGIC>MOL_PROPERTY
Sum Probability
SciTegic.value.DoubleValue
99.57

@<SCITEGIC>MOL_PROPERTY
Delta G
SciTegic.value.DoubleValue
3.789

@<SCITEGIC>MOL_PROPERTY
G
SciTegic.value.DoubleValue
27.501

@<SCITEGIC>MOL_PROPERTY
E
SciTegic.value.DoubleValue
-5.330

@<SCITEGIC>MOL_PROPERTY
-TS
SciTegic.value.DoubleValue
32.831

@<SCITEGIC>MOL_PROPERTY
U+W
SciTegic.value.DoubleValue
-26.792

@<SCITEGIC>MOL_PROPERTY
U
SciTegic.value.DoubleValue
27.317

@<SCITEGIC>MOL_PROPERTY
W
SciTegic.value.DoubleValue
-54.109

@<SCITEGIC>MOL_PROPERTY
W(PB)
SciTegic.value.DoubleValue
-56.370

@<SCITEGIC>MOL_PROPERTY
W(SA)
SciTegic.value.DoubleValue
2.261

@<SCITEGIC>MOL_PROPERTY
Valence
SciTegic.value.DoubleValue
6.336

@<SCITEGIC>MOL_PROPERTY
Coulomb
SciTegic.value.DoubleValue
19.872

@<SCITEGIC>MOL_PROPERTY
VdW
SciTegic.value.DoubleValue
1.110

@<SCITEGIC>MOL_PROPERTY
VdW6
SciTegic.value.DoubleValue
-8.501

@<SCITEGIC>MOL_PROPERTY
VdW12
SciTegic.value.DoubleValue
9.611

@<SCITEGIC>MOL_PROPERTY
Bond
SciTegic.value.DoubleValue
0.243

@<SCITEGIC>MOL_PROPERTY
Angle
SciTegic.value.DoubleValue
1.598

@<SCITEGIC>MOL_PROPERTY
Pdih
SciTegic.value.DoubleValue
4.495

@<SCITEGIC>MOL_PROPERTY
Idih
SciTegic.value.DoubleValue
0.000

@<SCITEGIC>MOL_PROPERTY
Tether
SciTegic.value.DoubleValue
0.000

@<TRIPOS>MOLECULE
guest-s13_vm2.mol2 : vm2 ligand conformer 52
          26          25           1
SMALL
USER_CHARGES
 
@<TRIPOS>ATOM
       1    C1      20.026683   18.600970   19.344882 C.3        1 MOL1        -0.2398
       2    H1      19.187122   19.306550   19.355534 H          1 MOL1         0.0972
       3    H2      20.499558   18.668500   18.356563 H          1 MOL1         0.0972
       4    H3      19.624535   17.585507   19.454972 H          1 MOL1         0.0972
       5    C2      21.053310   18.916131   20.456873 C.3        1 MOL1        -0.1383
       6    H4      21.415689   19.947789   20.346438 H          1 MOL1         0.0961
       7    H5      21.929268   18.266969   20.318407 H          1 MOL1         0.0961
       8    C3      20.502041   18.703105   21.887781 C.3        1 MOL1        -0.1407
       9    H6      20.114147   17.679357   21.981407 H          1 MOL1         0.0961
      10    H7      21.346456   18.791668   22.581540 H          1 MOL1         0.0961
      11    C4      19.405497   19.723891   22.283920 C.3        1 MOL1        -0.1407
      12    H8      18.619048   19.727072   21.518845 H          1 MOL1         0.0961
      13    H9      19.832677   20.736178   22.285334 H          1 MOL1         0.0961
      14    C5      18.722978   19.450287   23.650382 C.3        1 MOL1        -0.1472
      15    H10     17.907811   20.179046   23.753100 H          1 MOL1         0.0961
      16    H11     18.241393   18.463562   23.642227 H          1 MOL1         0.0961
      17    C6      19.653684   19.573353   24.880441 C.3        1 MOL1         0.1190
      18    H12     20.342158   20.406920   24.710821 H          1 MOL1         0.0923
      19    C7      18.833224   19.877077   26.145153 C.3        1 MOL1        -0.2463
      20    H13     19.488997   19.980507   27.018494 H          1 MOL1         0.0972
      21    H14     18.111746   19.076599   26.351841 H          1 MOL1         0.0972
      22    H15     18.278762   20.817423   26.035152 H          1 MOL1         0.0972
      23    N1      20.490583   18.343186   25.104567 N.4        1 MOL1        -0.5974
      24    H16     19.905873   17.528148   25.307457 H          1 MOL1         0.3625
      25    H17     21.055898   18.118839   24.282864 H          1 MOL1         0.3625
      26    H18     21.129686   18.464922   25.895314 H          1 MOL1         0.3625
@<TRIPOS>BOND
    1     1     2    1
    2     1     3    1
    3     1     4    1
    4     1     5    1
    5     5     6    1
    6     5     7    1
    7     5     8    1
    8     8     9    1
    9     8    10    1
   10     8    11    1
   11    11    12    1
   12    11    13    1
   13    11    14    1
   14    14    15    1
   15    14    16    1
   16    14    17    1
   17    17    18    1
   18    17    19    1
   19    19    20    1
   20    19    21    1
   21    19    22    1
   22    17    23    1
   23    23    24    1
   24    23    25    1
   25    23    26    1
@<TRIPOS>SUBSTRUCTURE
       1 MOL1            1 RESIDUE      1      MOL     
@<SCITEGIC>MOL_PROPERTY
VM2 Rank
SciTegic.value.IntegerValue
52

@<SCITEGIC>MOL_PROPERTY
Conf_Id
SciTegic.value.IntegerValue
854

@<SCITEGIC>MOL_PROPERTY
Probability
SciTegic.value.DoubleValue
0.03

@<SCITEGIC>MOL_PROPERTY
Sum Probability
SciTegic.value.DoubleValue
99.59

@<SCITEGIC>MOL_PROPERTY
Delta G
SciTegic.value.DoubleValue
3.793

@<SCITEGIC>MOL_PROPERTY
G
SciTegic.value.DoubleValue
27.505

@<SCITEGIC>MOL_PROPERTY
E
SciTegic.value.DoubleValue
-5.078

@<SCITEGIC>MOL_PROPERTY
-TS
SciTegic.value.DoubleValue
32.583

@<SCITEGIC>MOL_PROPERTY
U+W
SciTegic.value.DoubleValue
-26.540

@<SCITEGIC>MOL_PROPERTY
U
SciTegic.value.DoubleValue
27.399

@<SCITEGIC>MOL_PROPERTY
W
SciTegic.value.DoubleValue
-53.939

@<SCITEGIC>MOL_PROPERTY
W(PB)
SciTegic.value.DoubleValue
-56.242

@<SCITEGIC>MOL_PROPERTY
W(SA)
SciTegic.value.DoubleValue
2.303

@<SCITEGIC>MOL_PROPERTY
Valence
SciTegic.value.DoubleValue
5.205

@<SCITEGIC>MOL_PROPERTY
Coulomb
SciTegic.value.DoubleValue
21.096

@<SCITEGIC>MOL_PROPERTY
VdW
SciTegic.value.DoubleValue
1.098

@<SCITEGIC>MOL_PROPERTY
VdW6
SciTegic.value.DoubleValue
-8.389

@<SCITEGIC>MOL_PROPERTY
VdW12
SciTegic.value.DoubleValue
9.487

@<SCITEGIC>MOL_PROPERTY
Bond
SciTegic.value.DoubleValue
0.270

@<SCITEGIC>MOL_PROPERTY
Angle
SciTegic.value.DoubleValue
1.912

@<SCITEGIC>MOL_PROPERTY
Pdih
SciTegic.value.DoubleValue
3.023

@<SCITEGIC>MOL_PROPERTY
Idih
SciTegic.value.DoubleValue
0.000

@<SCITEGIC>MOL_PROPERTY
Tether
SciTegic.value.DoubleValue
0.000

@<TRIPOS>MOLECULE
guest-s13_vm2.mol2 : vm2 ligand conformer 53
          26          25           1
SMALL
USER_CHARGES
 
@<TRIPOS>ATOM
       1    C1      19.884739   20.081004   19.770844 C.3        1 MOL1        -0.2398
       2    H1      18.921092   20.516972   20.064607 H          1 MOL1         0.0972
       3    H2      20.683646   20.647474   20.264824 H          1 MOL1         0.0972
       4    H3      20.001137   20.223058   18.688625 H          1 MOL1         0.0972
       5    C2      19.947308   18.578594   20.128355 C.3        1 MOL1        -0.1383
       6    H4      20.930525   18.172450   19.852537 H          1 MOL1         0.0961
       7    H5      19.209779   18.039356   19.517553 H          1 MOL1         0.0961
       8    C3      19.660127   18.290839   21.621577 C.3        1 MOL1        -0.1407
       9    H6      18.671872   18.688538   21.881423 H          1 MOL1         0.0961
      10    H7      19.595124   17.202537   21.757861 H          1 MOL1         0.0961
      11    C4      20.746990   18.850658   22.575820 C.3        1 MOL1        -0.1407
      12    H8      20.850550   19.937312   22.459966 H          1 MOL1         0.0961
      13    H9      21.713953   18.420812   22.280002 H          1 MOL1         0.0961
      14    C5      20.492014   18.506634   24.067594 C.3        1 MOL1        -0.1472
      15    H10     19.919183   17.573675   24.151966 H          1 MOL1         0.0961
      16    H11     21.464525   18.302740   24.534883 H          1 MOL1         0.0961
      17    C6      19.809368   19.628645   24.886814 C.3        1 MOL1         0.1190
      18    H12     20.436240   20.523584   24.825547 H          1 MOL1         0.0923
      19    C7      18.410043   19.987839   24.359233 C.3        1 MOL1        -0.2463
      20    H13     17.765073   19.101970   24.306528 H          1 MOL1         0.0972
      21    H14     18.469809   20.436890   23.361123 H          1 MOL1         0.0972
      22    H15     17.926398   20.722966   25.014158 H          1 MOL1         0.0972
      23    N1      19.737411   19.263788   26.343763 N.4        1 MOL1        -0.5974
      24    H16     20.665196   19.067353   26.730063 H          1 MOL1         0.3625
      25    H17     19.330946   20.021587   26.899568 H          1 MOL1         0.3625
      26    H18     19.159795   18.432225   26.493155 H          1 MOL1         0.3625
@<TRIPOS>BOND
    1     1     2    1
    2     1     3    1
    3     1     4    1
    4     1     5    1
    5     5     6    1
    6     5     7    1
    7     5     8    1
    8     8     9    1
    9     8    10    1
   10     8    11    1
   11    11    12    1
   12    11    13    1
   13    11    14    1
   14    14    15    1
   15    14    16    1
   16    14    17    1
   17    17    18    1
   18    17    19    1
   19    19    20    1
   20    19    21    1
   21    19    22    1
   22    17    23    1
   23    23    24    1
   24    23    25    1
   25    23    26    1
@<TRIPOS>SUBSTRUCTURE
       1 MOL1            1 RESIDUE      1      MOL     
@<SCITEGIC>MOL_PROPERTY
VM2 Rank
SciTegic.value.IntegerValue
53

@<SCITEGIC>MOL_PROPERTY
Conf_Id
SciTegic.value.IntegerValue
1007

@<SCITEGIC>MOL_PROPERTY
Probability
SciTegic.value.DoubleValue
0.03

@<SCITEGIC>MOL_PROPERTY
Sum Probability
SciTegic.value.DoubleValue
99.62

@<SCITEGIC>MOL_PROPERTY
Delta G
SciTegic.value.DoubleValue
3.820

@<SCITEGIC>MOL_PROPERTY
G
SciTegic.value.DoubleValue
27.532

@<SCITEGIC>MOL_PROPERTY
E
SciTegic.value.DoubleValue
-5.393

@<SCITEGIC>MOL_PROPERTY
-TS
SciTegic.value.DoubleValue
32.925

@<SCITEGIC>MOL_PROPERTY
U+W
SciTegic.value.DoubleValue
-26.855

@<SCITEGIC>MOL_PROPERTY
U
SciTegic.value.DoubleValue
27.193

@<SCITEGIC>MOL_PROPERTY
W
SciTegic.value.DoubleValue
-54.048

@<SCITEGIC>MOL_PROPERTY
W(PB)
SciTegic.value.DoubleValue
-56.290

@<SCITEGIC>MOL_PROPERTY
W(SA)
SciTegic.value.DoubleValue
2.242

@<SCITEGIC>MOL_PROPERTY
Valence
SciTegic.value.DoubleValue
6.324

@<SCITEGIC>MOL_PROPERTY
Coulomb
SciTegic.value.DoubleValue
19.778

@<SCITEGIC>MOL_PROPERTY
VdW
SciTegic.value.DoubleValue
1.091

@<SCITEGIC>MOL_PROPERTY
VdW6
SciTegic.value.DoubleValue
-8.627

@<SCITEGIC>MOL_PROPERTY
VdW12
SciTegic.value.DoubleValue
9.718

@<SCITEGIC>MOL_PROPERTY
Bond
SciTegic.value.DoubleValue
0.275

@<SCITEGIC>MOL_PROPERTY
Angle
SciTegic.value.DoubleValue
1.905

@<SCITEGIC>MOL_PROPERTY
Pdih
SciTegic.value.DoubleValue
4.144

@<SCITEGIC>MOL_PROPERTY
Idih
SciTegic.value.DoubleValue
0.000

@<SCITEGIC>MOL_PROPERTY
Tether
SciTegic.value.DoubleValue
0.000

@<TRIPOS>MOLECULE
guest-s13_vm2.mol2 : vm2 ligand conformer 54
          26          25           1
SMALL
USER_CHARGES
 
@<TRIPOS>ATOM
       1    C1      20.042172   17.661405   20.204650 C.3        1 MOL1        -0.2398
       2    H1      20.234949   17.270276   19.197290 H          1 MOL1         0.0972
       3    H2      20.834184   17.282063   20.861876 H          1 MOL1         0.0972
       4    H3      19.083833   17.249567   20.546650 H          1 MOL1         0.0972
       5    C2      20.008708   19.206582   20.186941 C.3        1 MOL1        -0.1383
       6    H4      19.288617   19.535484   19.424650 H          1 MOL1         0.0961
       7    H5      20.987560   19.594914   19.872651 H          1 MOL1         0.0961
       8    C3      19.609231   19.827544   21.547093 C.3        1 MOL1        -0.1407
       9    H6      19.487810   20.910886   21.410222 H          1 MOL1         0.0961
      10    H7      18.624369   19.445440   21.839990 H          1 MOL1         0.0961
      11    C4      20.652112   19.576537   22.667118 C.3        1 MOL1        -0.1407
      12    H8      21.621113   19.960450   22.319535 H          1 MOL1         0.0961
      13    H9      20.794957   18.501636   22.829659 H          1 MOL1         0.0961
      14    C5      20.302487   20.281136   24.008004 C.3        1 MOL1        -0.1472
      15    H10     21.238496   20.611161   24.477548 H          1 MOL1         0.0961
      16    H11     19.738800   21.202492   23.811157 H          1 MOL1         0.0961
      17    C6      19.539021   19.424729   25.048914 C.3        1 MOL1         0.1190
      18    H12     19.357510   20.063987   25.918505 H          1 MOL1         0.0923
      19    C7      18.172050   18.939898   24.539764 C.3        1 MOL1        -0.2463
      20    H13     18.281520   18.190780   23.746674 H          1 MOL1         0.0972
      21    H14     17.580406   19.777749   24.150741 H          1 MOL1         0.0972
      22    H15     17.600986   18.480220   25.355643 H          1 MOL1         0.0972
      23    N1      20.362220   18.270168   25.551515 N.4        1 MOL1        -0.5974
      24    H16     19.871235   17.753079   26.286327 H          1 MOL1         0.3625
      25    H17     20.574445   17.609051   24.800579 H          1 MOL1         0.3625
      26    H18     21.253140   18.586933   25.944422 H          1 MOL1         0.3625
@<TRIPOS>BOND
    1     1     2    1
    2     1     3    1
    3     1     4    1
    4     1     5    1
    5     5     6    1
    6     5     7    1
    7     5     8    1
    8     8     9    1
    9     8    10    1
   10     8    11    1
   11    11    12    1
   12    11    13    1
   13    11    14    1
   14    14    15    1
   15    14    16    1
   16    14    17    1
   17    17    18    1
   18    17    19    1
   19    19    20    1
   20    19    21    1
   21    19    22    1
   22    17    23    1
   23    23    24    1
   24    23    25    1
   25    23    26    1
@<TRIPOS>SUBSTRUCTURE
       1 MOL1            1 RESIDUE      1      MOL     
@<SCITEGIC>MOL_PROPERTY
VM2 Rank
SciTegic.value.IntegerValue
54

@<SCITEGIC>MOL_PROPERTY
Conf_Id
SciTegic.value.IntegerValue
1055

@<SCITEGIC>MOL_PROPERTY
Probability
SciTegic.value.DoubleValue
0.03

@<SCITEGIC>MOL_PROPERTY
Sum Probability
SciTegic.value.DoubleValue
99.65

@<SCITEGIC>MOL_PROPERTY
Delta G
SciTegic.value.DoubleValue
3.833

@<SCITEGIC>MOL_PROPERTY
G
SciTegic.value.DoubleValue
27.545

@<SCITEGIC>MOL_PROPERTY
E
SciTegic.value.DoubleValue
-5.435

@<SCITEGIC>MOL_PROPERTY
-TS
SciTegic.value.DoubleValue
32.981

@<SCITEGIC>MOL_PROPERTY
U+W
SciTegic.value.DoubleValue
-26.897

@<SCITEGIC>MOL_PROPERTY
U
SciTegic.value.DoubleValue
27.552

@<SCITEGIC>MOL_PROPERTY
W
SciTegic.value.DoubleValue
-54.449

@<SCITEGIC>MOL_PROPERTY
W(PB)
SciTegic.value.DoubleValue
-56.690

@<SCITEGIC>MOL_PROPERTY
W(SA)
SciTegic.value.DoubleValue
2.240

@<SCITEGIC>MOL_PROPERTY
Valence
SciTegic.value.DoubleValue
6.310

@<SCITEGIC>MOL_PROPERTY
Coulomb
SciTegic.value.DoubleValue
20.199

@<SCITEGIC>MOL_PROPERTY
VdW
SciTegic.value.DoubleValue
1.044

@<SCITEGIC>MOL_PROPERTY
VdW6
SciTegic.value.DoubleValue
-9.081

@<SCITEGIC>MOL_PROPERTY
VdW12
SciTegic.value.DoubleValue
10.125

@<SCITEGIC>MOL_PROPERTY
Bond
SciTegic.value.DoubleValue
0.308

@<SCITEGIC>MOL_PROPERTY
Angle
SciTegic.value.DoubleValue
2.043

@<SCITEGIC>MOL_PROPERTY
Pdih
SciTegic.value.DoubleValue
3.958

@<SCITEGIC>MOL_PROPERTY
Idih
SciTegic.value.DoubleValue
0.000

@<SCITEGIC>MOL_PROPERTY
Tether
SciTegic.value.DoubleValue
0.000

@<TRIPOS>MOLECULE
guest-s13_vm2.mol2 : vm2 ligand conformer 55
          26          25           1
SMALL
USER_CHARGES
 
@<TRIPOS>ATOM
       1    C1      19.130781   19.715646   20.196636 C.3        1 MOL1        -0.2398
       2    H1      18.410922   19.687847   21.023891 H          1 MOL1         0.0972
       3    H2      19.689250   20.659139   20.249096 H          1 MOL1         0.0972
       4    H3      18.555457   19.717559   19.261830 H          1 MOL1         0.0972
       5    C2      20.083374   18.500990   20.241040 C.3        1 MOL1        -0.1383
       6    H4      20.671089   18.479830   19.312659 H          1 MOL1         0.0961
       7    H5      19.491881   17.574806   20.247419 H          1 MOL1         0.0961
       8    C3      21.062370   18.500046   21.442954 C.3        1 MOL1        -0.1407
       9    H6      21.710197   17.618451   21.340263 H          1 MOL1         0.0961
      10    H7      21.733275   19.368074   21.383922 H          1 MOL1         0.0961
      11    C4      20.379204   18.438956   22.834174 C.3        1 MOL1        -0.1407
      12    H8      21.004942   17.824628   23.494954 H          1 MOL1         0.0961
      13    H9      19.419121   17.914164   22.747766 H          1 MOL1         0.0961
      14    C5      20.194430   19.837385   23.486409 C.3        1 MOL1        -0.1472
      15    H10     21.178171   20.312686   23.593840 H          1 MOL1         0.0961
      16    H11     19.620450   20.493058   22.822256 H          1 MOL1         0.0961
      17    C6      19.508060   19.823012   24.872677 C.3        1 MOL1         0.1190
      18    H12     19.494269   20.854464   25.238384 H          1 MOL1         0.0923
      19    C7      18.048925   19.341477   24.789172 C.3        1 MOL1        -0.2463
      20    H13     17.985488   18.280287   24.521344 H          1 MOL1         0.0972
      21    H14     17.489796   19.918744   24.042398 H          1 MOL1         0.0972
      22    H15     17.546242   19.473058   25.755169 H          1 MOL1         0.0972
      23    N1      20.280857   19.030488   25.890938 N.4        1 MOL1        -0.5974
      24    H16     21.240889   19.374008   25.984464 H          1 MOL1         0.3625
      25    H17     19.845384   19.084288   26.816049 H          1 MOL1         0.3625
      26    H18     20.330714   18.042085   25.632390 H          1 MOL1         0.3625
@<TRIPOS>BOND
    1     1     2    1
    2     1     3    1
    3     1     4    1
    4     1     5    1
    5     5     6    1
    6     5     7    1
    7     5     8    1
    8     8     9    1
    9     8    10    1
   10     8    11    1
   11    11    12    1
   12    11    13    1
   13    11    14    1
   14    14    15    1
   15    14    16    1
   16    14    17    1
   17    17    18    1
   18    17    19    1
   19    19    20    1
   20    19    21    1
   21    19    22    1
   22    17    23    1
   23    23    24    1
   24    23    25    1
   25    23    26    1
@<TRIPOS>SUBSTRUCTURE
       1 MOL1            1 RESIDUE      1      MOL     
@<SCITEGIC>MOL_PROPERTY
VM2 Rank
SciTegic.value.IntegerValue
55

@<SCITEGIC>MOL_PROPERTY
Conf_Id
SciTegic.value.IntegerValue
103

@<SCITEGIC>MOL_PROPERTY
Probability
SciTegic.value.DoubleValue
0.03

@<SCITEGIC>MOL_PROPERTY
Sum Probability
SciTegic.value.DoubleValue
99.68

@<SCITEGIC>MOL_PROPERTY
Delta G
SciTegic.value.DoubleValue
3.877

@<SCITEGIC>MOL_PROPERTY
G
SciTegic.value.DoubleValue
27.590

@<SCITEGIC>MOL_PROPERTY
E
SciTegic.value.DoubleValue
-5.460

@<SCITEGIC>MOL_PROPERTY
-TS
SciTegic.value.DoubleValue
33.049

@<SCITEGIC>MOL_PROPERTY
U+W
SciTegic.value.DoubleValue
-26.922

@<SCITEGIC>MOL_PROPERTY
U
SciTegic.value.DoubleValue
27.276

@<SCITEGIC>MOL_PROPERTY
W
SciTegic.value.DoubleValue
-54.198

@<SCITEGIC>MOL_PROPERTY
W(PB)
SciTegic.value.DoubleValue
-56.419

@<SCITEGIC>MOL_PROPERTY
W(SA)
SciTegic.value.DoubleValue
2.221

@<SCITEGIC>MOL_PROPERTY
Valence
SciTegic.value.DoubleValue
6.240

@<SCITEGIC>MOL_PROPERTY
Coulomb
SciTegic.value.DoubleValue
19.962

@<SCITEGIC>MOL_PROPERTY
VdW
SciTegic.value.DoubleValue
1.074

@<SCITEGIC>MOL_PROPERTY
VdW6
SciTegic.value.DoubleValue
-9.126

@<SCITEGIC>MOL_PROPERTY
VdW12
SciTegic.value.DoubleValue
10.200

@<SCITEGIC>MOL_PROPERTY
Bond
SciTegic.value.DoubleValue
0.305

@<SCITEGIC>MOL_PROPERTY
Angle
SciTegic.value.DoubleValue
1.933

@<SCITEGIC>MOL_PROPERTY
Pdih
SciTegic.value.DoubleValue
4.002

@<SCITEGIC>MOL_PROPERTY
Idih
SciTegic.value.DoubleValue
0.000

@<SCITEGIC>MOL_PROPERTY
Tether
SciTegic.value.DoubleValue
0.000

@<TRIPOS>MOLECULE
guest-s13_vm2.mol2 : vm2 ligand conformer 56
          26          25           1
SMALL
USER_CHARGES
 
@<TRIPOS>ATOM
       1    C1      21.320537   18.349753   20.540045 C.3        1 MOL1        -0.2398
       2    H1      20.982999   17.328736   20.760088 H          1 MOL1         0.0972
       3    H2      22.090967   18.287732   19.760642 H          1 MOL1         0.0972
       4    H3      21.795792   18.762837   21.438334 H          1 MOL1         0.0972
       5    C2      20.146388   19.235157   20.068428 C.3        1 MOL1        -0.1383
       6    H4      19.804009   18.873681   19.088695 H          1 MOL1         0.0961
       7    H5      20.506342   20.260593   19.905157 H          1 MOL1         0.0961
       8    C3      18.934957   19.258217   21.035320 C.3        1 MOL1        -0.1407
       9    H6      18.152438   19.873150   20.569489 H          1 MOL1         0.0961
      10    H7      18.504607   18.251394   21.126649 H          1 MOL1         0.0961
      11    C4      19.239036   19.843938   22.438985 C.3        1 MOL1        -0.1407
      12    H8      18.358160   20.410783   22.768018 H          1 MOL1         0.0961
      13    H9      20.062575   20.568334   22.373744 H          1 MOL1         0.0961
      14    C5      19.556312   18.758247   23.500666 C.3        1 MOL1        -0.1472
      15    H10     18.668648   18.131884   23.660221 H          1 MOL1         0.0961
      16    H11     20.335134   18.089785   23.117344 H          1 MOL1         0.0961
      17    C6      20.033585   19.333719   24.853716 C.3        1 MOL1         0.1190
      18    H12     20.895663   19.981088   24.665527 H          1 MOL1         0.0923
      19    C7      18.941782   20.167236   25.548554 C.3        1 MOL1        -0.2463
      20    H13     18.029478   19.577445   25.701918 H          1 MOL1         0.0972
      21    H14     18.682896   21.055070   24.960150 H          1 MOL1         0.0972
      22    H15     19.288559   20.518110   26.528323 H          1 MOL1         0.0972
      23    N1      20.515403   18.241733   25.768286 N.4        1 MOL1        -0.5974
      24    H16     19.762978   17.587316   25.998720 H          1 MOL1         0.3625
      25    H17     21.274362   17.701042   25.343810 H          1 MOL1         0.3625
      26    H18     20.869706   18.622041   26.650497 H          1 MOL1         0.3625
@<TRIPOS>BOND
    1     1     2    1
    2     1     3    1
    3     1     4    1
    4     1     5    1
    5     5     6    1
    6     5     7    1
    7     5     8    1
    8     8     9    1
    9     8    10    1
   10     8    11    1
   11    11    12    1
   12    11    13    1
   13    11    14    1
   14    14    15    1
   15    14    16    1
   16    14    17    1
   17    17    18    1
   18    17    19    1
   19    19    20    1
   20    19    21    1
   21    19    22    1
   22    17    23    1
   23    23    24    1
   24    23    25    1
   25    23    26    1
@<TRIPOS>SUBSTRUCTURE
       1 MOL1            1 RESIDUE      1      MOL     
@<SCITEGIC>MOL_PROPERTY
VM2 Rank
SciTegic.value.IntegerValue
56

@<SCITEGIC>MOL_PROPERTY
Conf_Id
SciTegic.value.IntegerValue
460

@<SCITEGIC>MOL_PROPERTY
Probability
SciTegic.value.DoubleValue
0.03

@<SCITEGIC>MOL_PROPERTY
Sum Probability
SciTegic.value.DoubleValue
99.70

@<SCITEGIC>MOL_PROPERTY
Delta G
SciTegic.value.DoubleValue
3.883

@<SCITEGIC>MOL_PROPERTY
G
SciTegic.value.DoubleValue
27.595

@<SCITEGIC>MOL_PROPERTY
E
SciTegic.value.DoubleValue
-5.377

@<SCITEGIC>MOL_PROPERTY
-TS
SciTegic.value.DoubleValue
32.973

@<SCITEGIC>MOL_PROPERTY
U+W
SciTegic.value.DoubleValue
-26.839

@<SCITEGIC>MOL_PROPERTY
U
SciTegic.value.DoubleValue
27.458

@<SCITEGIC>MOL_PROPERTY
W
SciTegic.value.DoubleValue
-54.298

@<SCITEGIC>MOL_PROPERTY
W(PB)
SciTegic.value.DoubleValue
-56.574

@<SCITEGIC>MOL_PROPERTY
W(SA)
SciTegic.value.DoubleValue
2.276

@<SCITEGIC>MOL_PROPERTY
Valence
SciTegic.value.DoubleValue
6.292

@<SCITEGIC>MOL_PROPERTY
Coulomb
SciTegic.value.DoubleValue
20.019

@<SCITEGIC>MOL_PROPERTY
VdW
SciTegic.value.DoubleValue
1.147

@<SCITEGIC>MOL_PROPERTY
VdW6
SciTegic.value.DoubleValue
-8.552

@<SCITEGIC>MOL_PROPERTY
VdW12
SciTegic.value.DoubleValue
9.699

@<SCITEGIC>MOL_PROPERTY
Bond
SciTegic.value.DoubleValue
0.273

@<SCITEGIC>MOL_PROPERTY
Angle
SciTegic.value.DoubleValue
1.838

@<SCITEGIC>MOL_PROPERTY
Pdih
SciTegic.value.DoubleValue
4.181

@<SCITEGIC>MOL_PROPERTY
Idih
SciTegic.value.DoubleValue
0.000

@<SCITEGIC>MOL_PROPERTY
Tether
SciTegic.value.DoubleValue
0.000

@<TRIPOS>MOLECULE
guest-s13_vm2.mol2 : vm2 ligand conformer 57
          26          25           1
SMALL
USER_CHARGES
 
@<TRIPOS>ATOM
       1    C1      19.801325   20.416138   20.748125 C.3        1 MOL1        -0.2398
       2    H1      19.379232   20.850066   19.832454 H          1 MOL1         0.0972
       3    H2      19.068253   20.566355   21.547014 H          1 MOL1         0.0972
       4    H3      20.704510   20.986914   20.999881 H          1 MOL1         0.0972
       5    C2      20.131622   18.921094   20.530479 C.3        1 MOL1        -0.1383
       6    H4      20.784122   18.847982   19.649094 H          1 MOL1         0.0961
       7    H5      19.220035   18.362173   20.277317 H          1 MOL1         0.0961
       8    C3      20.857602   18.254758   21.727985 C.3        1 MOL1        -0.1407
       9    H6      21.517175   17.473779   21.324850 H          1 MOL1         0.0961
      10    H7      21.527657   18.974283   22.216792 H          1 MOL1         0.0961
      11    C4      19.924793   17.572843   22.765418 C.3        1 MOL1        -0.1407
      12    H8      20.545608   17.025887   23.487596 H          1 MOL1         0.0961
      13    H9      19.326128   16.805318   22.255909 H          1 MOL1         0.0961
      14    C5      18.968044   18.517971   23.536550 C.3        1 MOL1        -0.1472
      15    H10     18.220435   18.917250   22.840440 H          1 MOL1         0.0961
      16    H11     18.403416   17.928906   24.271329 H          1 MOL1         0.0961
      17    C6      19.680788   19.682541   24.259378 C.3        1 MOL1         0.1190
      18    H12     20.246707   20.253108   23.517123 H          1 MOL1         0.0923
      19    C7      18.650992   20.623220   24.904508 C.3        1 MOL1        -0.2463
      20    H13     18.056549   20.100245   25.664107 H          1 MOL1         0.0972
      21    H14     17.963547   21.025085   24.149817 H          1 MOL1         0.0972
      22    H15     19.149855   21.473122   25.386301 H          1 MOL1         0.0972
      23    N1      20.672833   19.199434   25.281556 N.4        1 MOL1        -0.5974
      24    H16     20.214321   18.658655   26.019464 H          1 MOL1         0.3625
      25    H17     21.382829   18.598492   24.854585 H          1 MOL1         0.3625
      26    H18     21.159508   19.980301   25.730638 H          1 MOL1         0.3625
@<TRIPOS>BOND
    1     1     2    1
    2     1     3    1
    3     1     4    1
    4     1     5    1
    5     5     6    1
    6     5     7    1
    7     5     8    1
    8     8     9    1
    9     8    10    1
   10     8    11    1
   11    11    12    1
   12    11    13    1
   13    11    14    1
   14    14    15    1
   15    14    16    1
   16    14    17    1
   17    17    18    1
   18    17    19    1
   19    19    20    1
   20    19    21    1
   21    19    22    1
   22    17    23    1
   23    23    24    1
   24    23    25    1
   25    23    26    1
@<TRIPOS>SUBSTRUCTURE
       1 MOL1            1 RESIDUE      1      MOL     
@<SCITEGIC>MOL_PROPERTY
VM2 Rank
SciTegic.value.IntegerValue
57

@<SCITEGIC>MOL_PROPERTY
Conf_Id
SciTegic.value.IntegerValue
1120

@<SCITEGIC>MOL_PROPERTY
Probability
SciTegic.value.DoubleValue
0.02

@<SCITEGIC>MOL_PROPERTY
Sum Probability
SciTegic.value.DoubleValue
99.72

@<SCITEGIC>MOL_PROPERTY
Delta G
SciTegic.value.DoubleValue
3.937

@<SCITEGIC>MOL_PROPERTY
G
SciTegic.value.DoubleValue
27.649

@<SCITEGIC>MOL_PROPERTY
E
SciTegic.value.DoubleValue
-5.739

@<SCITEGIC>MOL_PROPERTY
-TS
SciTegic.value.DoubleValue
33.389

@<SCITEGIC>MOL_PROPERTY
U+W
SciTegic.value.DoubleValue
-27.201

@<SCITEGIC>MOL_PROPERTY
U
SciTegic.value.DoubleValue
26.996

@<SCITEGIC>MOL_PROPERTY
W
SciTegic.value.DoubleValue
-54.196

@<SCITEGIC>MOL_PROPERTY
W(PB)
SciTegic.value.DoubleValue
-56.396

@<SCITEGIC>MOL_PROPERTY
W(SA)
SciTegic.value.DoubleValue
2.199

@<SCITEGIC>MOL_PROPERTY
Valence
SciTegic.value.DoubleValue
6.014

@<SCITEGIC>MOL_PROPERTY
Coulomb
SciTegic.value.DoubleValue
20.608

@<SCITEGIC>MOL_PROPERTY
VdW
SciTegic.value.DoubleValue
0.374

@<SCITEGIC>MOL_PROPERTY
VdW6
SciTegic.value.DoubleValue
-10.069

@<SCITEGIC>MOL_PROPERTY
VdW12
SciTegic.value.DoubleValue
10.443

@<SCITEGIC>MOL_PROPERTY
Bond
SciTegic.value.DoubleValue
0.292

@<SCITEGIC>MOL_PROPERTY
Angle
SciTegic.value.DoubleValue
2.200

@<SCITEGIC>MOL_PROPERTY
Pdih
SciTegic.value.DoubleValue
3.522

@<SCITEGIC>MOL_PROPERTY
Idih
SciTegic.value.DoubleValue
0.000

@<SCITEGIC>MOL_PROPERTY
Tether
SciTegic.value.DoubleValue
0.000

@<TRIPOS>MOLECULE
guest-s13_vm2.mol2 : vm2 ligand conformer 58
          26          25           1
SMALL
USER_CHARGES
 
@<TRIPOS>ATOM
       1    C1      20.624904   19.951967   19.972501 C.3        1 MOL1        -0.2398
       2    H1      20.254225   20.605961   19.172632 H          1 MOL1         0.0972
       3    H2      20.860190   20.584612   20.835208 H          1 MOL1         0.0972
       4    H3      21.560280   19.496204   19.622653 H          1 MOL1         0.0972
       5    C2      19.576366   18.867313   20.313022 C.3        1 MOL1        -0.1383
       6    H4      19.370693   18.297006   19.396312 H          1 MOL1         0.0961
       7    H5      18.623131   19.333552   20.598555 H          1 MOL1         0.0961
       8    C3      20.044788   17.879891   21.412951 C.3        1 MOL1        -0.1407
       9    H6      19.641949   16.886181   21.172729 H          1 MOL1         0.0961
      10    H7      21.137608   17.769740   21.385122 H          1 MOL1         0.0961
      11    C4      19.579948   18.235502   22.848873 C.3        1 MOL1        -0.1407
      12    H8      19.899087   17.425296   23.517187 H          1 MOL1         0.0961
      13    H9      18.482168   18.242005   22.875989 H          1 MOL1         0.0961
      14    C5      20.126589   19.588476   23.376456 C.3        1 MOL1        -0.1472
      15    H10     21.210408   19.632966   23.207734 H          1 MOL1         0.0961
      16    H11     19.688566   20.408506   22.794250 H          1 MOL1         0.0961
      17    C6      19.850552   19.861294   24.874038 C.3        1 MOL1         0.1190
      18    H12     20.280988   20.839304   25.110775 H          1 MOL1         0.0923
      19    C7      18.344181   19.928793   25.180416 C.3        1 MOL1        -0.2463
      20    H13     18.177099   20.251542   26.215345 H          1 MOL1         0.0972
      21    H14     17.860493   18.953186   25.051334 H          1 MOL1         0.0972
      22    H15     17.844490   20.650358   24.522225 H          1 MOL1         0.0972
      23    N1      20.540671   18.874763   25.775744 N.4        1 MOL1        -0.5974
      24    H16     21.550477   18.854699   25.607465 H          1 MOL1         0.3625
      25    H17     20.399966   19.108118   26.762726 H          1 MOL1         0.3625
      26    H18     20.185337   17.926603   25.631382 H          1 MOL1         0.3625
@<TRIPOS>BOND
    1     1     2    1
    2     1     3    1
    3     1     4    1
    4     1     5    1
    5     5     6    1
    6     5     7    1
    7     5     8    1
    8     8     9    1
    9     8    10    1
   10     8    11    1
   11    11    12    1
   12    11    13    1
   13    11    14    1
   14    14    15    1
   15    14    16    1
   16    14    17    1
   17    17    18    1
   18    17    19    1
   19    19    20    1
   20    19    21    1
   21    19    22    1
   22    17    23    1
   23    23    24    1
   24    23    25    1
   25    23    26    1
@<TRIPOS>SUBSTRUCTURE
       1 MOL1            1 RESIDUE      1      MOL     
@<SCITEGIC>MOL_PROPERTY
VM2 Rank
SciTegic.value.IntegerValue
58

@<SCITEGIC>MOL_PROPERTY
Conf_Id
SciTegic.value.IntegerValue
508

@<SCITEGIC>MOL_PROPERTY
Probability
SciTegic.value.DoubleValue
0.02

@<SCITEGIC>MOL_PROPERTY
Sum Probability
SciTegic.value.DoubleValue
99.75

@<SCITEGIC>MOL_PROPERTY
Delta G
SciTegic.value.DoubleValue
3.952

@<SCITEGIC>MOL_PROPERTY
G
SciTegic.value.DoubleValue
27.664

@<SCITEGIC>MOL_PROPERTY
E
SciTegic.value.DoubleValue
-5.396

@<SCITEGIC>MOL_PROPERTY
-TS
SciTegic.value.DoubleValue
33.060

@<SCITEGIC>MOL_PROPERTY
U+W
SciTegic.value.DoubleValue
-26.858

@<SCITEGIC>MOL_PROPERTY
U
SciTegic.value.DoubleValue
27.312

@<SCITEGIC>MOL_PROPERTY
W
SciTegic.value.DoubleValue
-54.170

@<SCITEGIC>MOL_PROPERTY
W(PB)
SciTegic.value.DoubleValue
-56.415

@<SCITEGIC>MOL_PROPERTY
W(SA)
SciTegic.value.DoubleValue
2.245

@<SCITEGIC>MOL_PROPERTY
Valence
SciTegic.value.DoubleValue
6.229

@<SCITEGIC>MOL_PROPERTY
Coulomb
SciTegic.value.DoubleValue
19.943

@<SCITEGIC>MOL_PROPERTY
VdW
SciTegic.value.DoubleValue
1.140

@<SCITEGIC>MOL_PROPERTY
VdW6
SciTegic.value.DoubleValue
-9.000

@<SCITEGIC>MOL_PROPERTY
VdW12
SciTegic.value.DoubleValue
10.140

@<SCITEGIC>MOL_PROPERTY
Bond
SciTegic.value.DoubleValue
0.294

@<SCITEGIC>MOL_PROPERTY
Angle
SciTegic.value.DoubleValue
1.969

@<SCITEGIC>MOL_PROPERTY
Pdih
SciTegic.value.DoubleValue
3.967

@<SCITEGIC>MOL_PROPERTY
Idih
SciTegic.value.DoubleValue
0.000

@<SCITEGIC>MOL_PROPERTY
Tether
SciTegic.value.DoubleValue
0.000

@<TRIPOS>MOLECULE
guest-s13_vm2.mol2 : vm2 ligand conformer 59
          26          25           1
SMALL
USER_CHARGES
 
@<TRIPOS>ATOM
       1    C1      20.657454   18.894128   19.374446 C.3        1 MOL1        -0.2398
       2    H1      20.717542   19.362551   18.383541 H          1 MOL1         0.0972
       3    H2      21.640367   19.001434   19.849759 H          1 MOL1         0.0972
       4    H3      20.460159   17.824175   19.228532 H          1 MOL1         0.0972
       5    C2      19.543712   19.554710   20.218202 C.3        1 MOL1        -0.1383
       6    H4      18.604945   19.529518   19.647343 H          1 MOL1         0.0961
       7    H5      19.779674   20.616569   20.374733 H          1 MOL1         0.0961
       8    C3      19.313304   18.863603   21.583764 C.3        1 MOL1        -0.1407
       9    H6      18.437690   19.322077   22.058766 H          1 MOL1         0.0961
      10    H7      19.050922   17.809479   21.418873 H          1 MOL1         0.0961
      11    C4      20.537809   18.949441   22.531097 C.3        1 MOL1        -0.1407
      12    H8      20.898980   19.984821   22.600114 H          1 MOL1         0.0961
      13    H9      21.359828   18.369666   22.090785 H          1 MOL1         0.0961
      14    C5      20.256759   18.387415   23.950045 C.3        1 MOL1        -0.1472
      15    H10     19.464082   17.628558   23.909457 H          1 MOL1         0.0961
      16    H11     21.158900   17.859013   24.285724 H          1 MOL1         0.0961
      17    C6      19.920238   19.456967   25.017165 C.3        1 MOL1         0.1190
      18    H12     20.751595   20.167366   25.059817 H          1 MOL1         0.0923
      19    C7      18.636890   20.240682   24.693929 C.3        1 MOL1        -0.2463
      20    H13     18.759726   20.838738   23.783530 H          1 MOL1         0.0972
      21    H14     18.393672   20.936539   25.506265 H          1 MOL1         0.0972
      22    H15     17.782824   19.566016   24.556397 H          1 MOL1         0.0972
      23    N1      19.821833   18.841055   26.385351 N.4        1 MOL1        -0.5974
      24    H16     19.646761   19.550046   27.103047 H          1 MOL1         0.3625
      25    H17     19.058565   18.161097   26.435656 H          1 MOL1         0.3625
      26    H18     20.685023   18.354211   26.643206 H          1 MOL1         0.3625
@<TRIPOS>BOND
    1     1     2    1
    2     1     3    1
    3     1     4    1
    4     1     5    1
    5     5     6    1
    6     5     7    1
    7     5     8    1
    8     8     9    1
    9     8    10    1
   10     8    11    1
   11    11    12    1
   12    11    13    1
   13    11    14    1
   14    14    15    1
   15    14    16    1
   16    14    17    1
   17    17    18    1
   18    17    19    1
   19    19    20    1
   20    19    21    1
   21    19    22    1
   22    17    23    1
   23    23    24    1
   24    23    25    1
   25    23    26    1
@<TRIPOS>SUBSTRUCTURE
       1 MOL1            1 RESIDUE      1      MOL     
@<SCITEGIC>MOL_PROPERTY
VM2 Rank
SciTegic.value.IntegerValue
59

@<SCITEGIC>MOL_PROPERTY
Conf_Id
SciTegic.value.IntegerValue
1024

@<SCITEGIC>MOL_PROPERTY
Probability
SciTegic.value.DoubleValue
0.02

@<SCITEGIC>MOL_PROPERTY
Sum Probability
SciTegic.value.DoubleValue
99.77

@<SCITEGIC>MOL_PROPERTY
Delta G
SciTegic.value.DoubleValue
4.003

@<SCITEGIC>MOL_PROPERTY
G
SciTegic.value.DoubleValue
27.715

@<SCITEGIC>MOL_PROPERTY
E
SciTegic.value.DoubleValue
-5.269

@<SCITEGIC>MOL_PROPERTY
-TS
SciTegic.value.DoubleValue
32.984

@<SCITEGIC>MOL_PROPERTY
U+W
SciTegic.value.DoubleValue
-26.731

@<SCITEGIC>MOL_PROPERTY
U
SciTegic.value.DoubleValue
27.221

@<SCITEGIC>MOL_PROPERTY
W
SciTegic.value.DoubleValue
-53.952

@<SCITEGIC>MOL_PROPERTY
W(PB)
SciTegic.value.DoubleValue
-56.214

@<SCITEGIC>MOL_PROPERTY
W(SA)
SciTegic.value.DoubleValue
2.261

@<SCITEGIC>MOL_PROPERTY
Valence
SciTegic.value.DoubleValue
6.368

@<SCITEGIC>MOL_PROPERTY
Coulomb
SciTegic.value.DoubleValue
19.698

@<SCITEGIC>MOL_PROPERTY
VdW
SciTegic.value.DoubleValue
1.155

@<SCITEGIC>MOL_PROPERTY
VdW6
SciTegic.value.DoubleValue
-8.532

@<SCITEGIC>MOL_PROPERTY
VdW12
SciTegic.value.DoubleValue
9.687

@<SCITEGIC>MOL_PROPERTY
Bond
SciTegic.value.DoubleValue
0.272

@<SCITEGIC>MOL_PROPERTY
Angle
SciTegic.value.DoubleValue
1.847

@<SCITEGIC>MOL_PROPERTY
Pdih
SciTegic.value.DoubleValue
4.248

@<SCITEGIC>MOL_PROPERTY
Idih
SciTegic.value.DoubleValue
0.000

@<SCITEGIC>MOL_PROPERTY
Tether
SciTegic.value.DoubleValue
0.000

@<TRIPOS>MOLECULE
guest-s13_vm2.mol2 : vm2 ligand conformer 60
          26          25           1
SMALL
USER_CHARGES
 
@<TRIPOS>ATOM
       1    C1      20.027378   18.589711   19.331462 C.3        1 MOL1        -0.2398
       2    H1      18.935125   18.562135   19.225483 H          1 MOL1         0.0972
       3    H2      20.456468   18.762456   18.335981 H          1 MOL1         0.0972
       4    H3      20.365748   17.602134   19.668036 H          1 MOL1         0.0972
       5    C2      20.463316   19.705435   20.308382 C.3        1 MOL1        -0.1383
       6    H4      20.215343   20.679182   19.863227 H          1 MOL1         0.0961
       7    H5      21.556065   19.690362   20.424333 H          1 MOL1         0.0961
       8    C3      19.787051   19.610134   21.697546 C.3        1 MOL1        -0.1407
       9    H6      20.048742   20.514482   22.261947 H          1 MOL1         0.0961
      10    H7      18.695271   19.620285   21.575085 H          1 MOL1         0.0961
      11    C4      20.213349   18.359819   22.506790 C.3        1 MOL1        -0.1407
      12    H8      21.302600   18.371462   22.650531 H          1 MOL1         0.0961
      13    H9      19.988749   17.454183   21.929011 H          1 MOL1         0.0961
      14    C5      19.515434   18.231243   23.884768 C.3        1 MOL1        -0.1472
      15    H10     18.430246   18.131430   23.748517 H          1 MOL1         0.0961
      16    H11     19.844411   17.284088   24.332433 H          1 MOL1         0.0961
      17    C6      19.834584   19.391942   24.858295 C.3        1 MOL1         0.1190
      18    H12     20.730146   19.905433   24.495136 H          1 MOL1         0.0923
      19    C7      18.678337   20.406169   24.929013 C.3        1 MOL1        -0.2463
      20    H13     17.772407   19.943910   25.340671 H          1 MOL1         0.0972
      21    H14     18.432050   20.804874   23.938613 H          1 MOL1         0.0972
      22    H15     18.947276   21.254458   25.570374 H          1 MOL1         0.0972
      23    N1      20.168552   18.893547   26.237744 N.4        1 MOL1        -0.5974
      24    H16     20.409543   19.665256   26.866166 H          1 MOL1         0.3625
      25    H17     19.379561   18.393894   26.656671 H          1 MOL1         0.3625
      26    H18     20.967009   18.252397   26.223507 H          1 MOL1         0.3625
@<TRIPOS>BOND
    1     1     2    1
    2     1     3    1
    3     1     4    1
    4     1     5    1
    5     5     6    1
    6     5     7    1
    7     5     8    1
    8     8     9    1
    9     8    10    1
   10     8    11    1
   11    11    12    1
   12    11    13    1
   13    11    14    1
   14    14    15    1
   15    14    16    1
   16    14    17    1
   17    17    18    1
   18    17    19    1
   19    19    20    1
   20    19    21    1
   21    19    22    1
   22    17    23    1
   23    23    24    1
   24    23    25    1
   25    23    26    1
@<TRIPOS>SUBSTRUCTURE
       1 MOL1            1 RESIDUE      1      MOL     
@<SCITEGIC>MOL_PROPERTY
VM2 Rank
SciTegic.value.IntegerValue
60

@<SCITEGIC>MOL_PROPERTY
Conf_Id
SciTegic.value.IntegerValue
503

@<SCITEGIC>MOL_PROPERTY
Probability
SciTegic.value.DoubleValue
0.02

@<SCITEGIC>MOL_PROPERTY
Sum Probability
SciTegic.value.DoubleValue
99.79

@<SCITEGIC>MOL_PROPERTY
Delta G
SciTegic.value.DoubleValue
4.007

@<SCITEGIC>MOL_PROPERTY
G
SciTegic.value.DoubleValue
27.719

@<SCITEGIC>MOL_PROPERTY
E
SciTegic.value.DoubleValue
-5.019

@<SCITEGIC>MOL_PROPERTY
-TS
SciTegic.value.DoubleValue
32.738

@<SCITEGIC>MOL_PROPERTY
U+W
SciTegic.value.DoubleValue
-26.481

@<SCITEGIC>MOL_PROPERTY
U
SciTegic.value.DoubleValue
27.496

@<SCITEGIC>MOL_PROPERTY
W
SciTegic.value.DoubleValue
-53.977

@<SCITEGIC>MOL_PROPERTY
W(PB)
SciTegic.value.DoubleValue
-56.267

@<SCITEGIC>MOL_PROPERTY
W(SA)
SciTegic.value.DoubleValue
2.290

@<SCITEGIC>MOL_PROPERTY
Valence
SciTegic.value.DoubleValue
6.472

@<SCITEGIC>MOL_PROPERTY
Coulomb
SciTegic.value.DoubleValue
19.839

@<SCITEGIC>MOL_PROPERTY
VdW
SciTegic.value.DoubleValue
1.185

@<SCITEGIC>MOL_PROPERTY
VdW6
SciTegic.value.DoubleValue
-8.405

@<SCITEGIC>MOL_PROPERTY
VdW12
SciTegic.value.DoubleValue
9.590

@<SCITEGIC>MOL_PROPERTY
Bond
SciTegic.value.DoubleValue
0.248

@<SCITEGIC>MOL_PROPERTY
Angle
SciTegic.value.DoubleValue
1.619

@<SCITEGIC>MOL_PROPERTY
Pdih
SciTegic.value.DoubleValue
4.604

@<SCITEGIC>MOL_PROPERTY
Idih
SciTegic.value.DoubleValue
0.000

@<SCITEGIC>MOL_PROPERTY
Tether
SciTegic.value.DoubleValue
0.000

@<TRIPOS>MOLECULE
guest-s13_vm2.mol2 : vm2 ligand conformer 61
          26          25           1
SMALL
USER_CHARGES
 
@<TRIPOS>ATOM
       1    C1      20.457662   17.685593   20.255367 C.3        1 MOL1        -0.2398
       2    H1      21.337255   17.258749   19.756344 H          1 MOL1         0.0972
       3    H2      20.377633   17.220186   21.243962 H          1 MOL1         0.0972
       4    H3      19.572464   17.396165   19.674220 H          1 MOL1         0.0972
       5    C2      20.579428   19.224888   20.343734 C.3        1 MOL1        -0.1383
       6    H4      20.666961   19.616694   19.320623 H          1 MOL1         0.0961
       7    H5      21.510534   19.506456   20.854928 H          1 MOL1         0.0961
       8    C3      19.362186   19.898113   21.028750 C.3        1 MOL1        -0.1407
       9    H6      19.162243   20.847594   20.513014 H          1 MOL1         0.0961
      10    H7      18.459565   19.288504   20.884218 H          1 MOL1         0.0961
      11    C4      19.553326   20.217092   22.534410 C.3        1 MOL1        -0.1407
      12    H8      18.658142   20.751596   22.876019 H          1 MOL1         0.0961
      13    H9      20.392553   20.915967   22.654953 H          1 MOL1         0.0961
      14    C5      19.791163   18.970933   23.424562 C.3        1 MOL1        -0.1472
      15    H10     18.984187   18.242460   23.270567 H          1 MOL1         0.0961
      16    H11     20.721608   18.487002   23.104518 H          1 MOL1         0.0961
      17    C6      19.921274   19.294960   24.930868 C.3        1 MOL1         0.1190
      18    H12     20.673966   20.080485   25.049541 H          1 MOL1         0.0923
      19    C7      18.596143   19.791466   25.537500 C.3        1 MOL1        -0.2463
      20    H13     17.791060   19.062352   25.382888 H          1 MOL1         0.0972
      21    H14     18.285413   20.745351   25.096760 H          1 MOL1         0.0972
      22    H15     18.703305   19.954847   26.616926 H          1 MOL1         0.0972
      23    N1      20.426818   18.104955   25.698809 N.4        1 MOL1        -0.5974
      24    H16     21.331451   17.782670   25.343373 H          1 MOL1         0.3625
      25    H17     20.551442   18.325711   26.690881 H          1 MOL1         0.3625
      26    H18     19.775226   17.317815   25.641042 H          1 MOL1         0.3625
@<TRIPOS>BOND
    1     1     2    1
    2     1     3    1
    3     1     4    1
    4     1     5    1
    5     5     6    1
    6     5     7    1
    7     5     8    1
    8     8     9    1
    9     8    10    1
   10     8    11    1
   11    11    12    1
   12    11    13    1
   13    11    14    1
   14    14    15    1
   15    14    16    1
   16    14    17    1
   17    17    18    1
   18    17    19    1
   19    19    20    1
   20    19    21    1
   21    19    22    1
   22    17    23    1
   23    23    24    1
   24    23    25    1
   25    23    26    1
@<TRIPOS>SUBSTRUCTURE
       1 MOL1            1 RESIDUE      1      MOL     
@<SCITEGIC>MOL_PROPERTY
VM2 Rank
SciTegic.value.IntegerValue
61

@<SCITEGIC>MOL_PROPERTY
Conf_Id
SciTegic.value.IntegerValue
540

@<SCITEGIC>MOL_PROPERTY
Probability
SciTegic.value.DoubleValue
0.02

@<SCITEGIC>MOL_PROPERTY
Sum Probability
SciTegic.value.DoubleValue
99.81

@<SCITEGIC>MOL_PROPERTY
Delta G
SciTegic.value.DoubleValue
4.020

@<SCITEGIC>MOL_PROPERTY
G
SciTegic.value.DoubleValue
27.732

@<SCITEGIC>MOL_PROPERTY
E
SciTegic.value.DoubleValue
-5.118

@<SCITEGIC>MOL_PROPERTY
-TS
SciTegic.value.DoubleValue
32.850

@<SCITEGIC>MOL_PROPERTY
U+W
SciTegic.value.DoubleValue
-26.580

@<SCITEGIC>MOL_PROPERTY
U
SciTegic.value.DoubleValue
27.653

@<SCITEGIC>MOL_PROPERTY
W
SciTegic.value.DoubleValue
-54.232

@<SCITEGIC>MOL_PROPERTY
W(PB)
SciTegic.value.DoubleValue
-56.523

@<SCITEGIC>MOL_PROPERTY
W(SA)
SciTegic.value.DoubleValue
2.290

@<SCITEGIC>MOL_PROPERTY
Valence
SciTegic.value.DoubleValue
6.436

@<SCITEGIC>MOL_PROPERTY
Coulomb
SciTegic.value.DoubleValue
19.986

@<SCITEGIC>MOL_PROPERTY
VdW
SciTegic.value.DoubleValue
1.232

@<SCITEGIC>MOL_PROPERTY
VdW6
SciTegic.value.DoubleValue
-8.460

@<SCITEGIC>MOL_PROPERTY
VdW12
SciTegic.value.DoubleValue
9.692

@<SCITEGIC>MOL_PROPERTY
Bond
SciTegic.value.DoubleValue
0.276

@<SCITEGIC>MOL_PROPERTY
Angle
SciTegic.value.DoubleValue
2.012

@<SCITEGIC>MOL_PROPERTY
Pdih
SciTegic.value.DoubleValue
4.149

@<SCITEGIC>MOL_PROPERTY
Idih
SciTegic.value.DoubleValue
0.000

@<SCITEGIC>MOL_PROPERTY
Tether
SciTegic.value.DoubleValue
0.000

@<TRIPOS>MOLECULE
guest-s13_vm2.mol2 : vm2 ligand conformer 62
          26          25           1
SMALL
USER_CHARGES
 
@<TRIPOS>ATOM
       1    C1      19.618525   18.041968   19.542108 C.3        1 MOL1        -0.2398
       2    H1      18.675211   18.562556   19.331430 H          1 MOL1         0.0972
       3    H2      20.123236   17.858637   18.584667 H          1 MOL1         0.0972
       4    H3      19.379308   17.068033   19.988678 H          1 MOL1         0.0972
       5    C2      20.515733   18.877492   20.479705 C.3        1 MOL1        -0.1383
       6    H4      20.766320   19.829161   19.990369 H          1 MOL1         0.0961
       7    H5      21.463890   18.346985   20.645548 H          1 MOL1         0.0961
       8    C3      19.827063   19.151832   21.834994 C.3        1 MOL1        -0.1407
       9    H6      18.884332   19.689619   21.663747 H          1 MOL1         0.0961
      10    H7      19.575170   18.191251   22.299888 H          1 MOL1         0.0961
      11    C4      20.731336   19.974843   22.781896 C.3        1 MOL1        -0.1407
      12    H8      21.102540   20.852323   22.234520 H          1 MOL1         0.0961
      13    H9      21.623874   19.389713   23.041014 H          1 MOL1         0.0961
      14    C5      20.035274   20.487278   24.074955 C.3        1 MOL1        -0.1472
      15    H10     20.768235   21.097043   24.619235 H          1 MOL1         0.0961
      16    H11     19.226963   21.180686   23.807684 H          1 MOL1         0.0961
      17    C6      19.498523   19.423408   25.067661 C.3        1 MOL1         0.1190
      18    H12     19.472156   19.900659   26.052214 H          1 MOL1         0.0923
      19    C7      18.052163   18.995672   24.756370 C.3        1 MOL1        -0.2463
      20    H13     17.668679   18.343477   25.550546 H          1 MOL1         0.0972
      21    H14     17.969639   18.450473   23.811657 H          1 MOL1         0.0972
      22    H15     17.391637   19.869873   24.702970 H          1 MOL1         0.0972
      23    N1      20.409382   18.235507   25.216310 N.4        1 MOL1        -0.5974
      24    H16     21.348444   18.519759   25.509226 H          1 MOL1         0.3625
      25    H17     20.056145   17.576963   25.916291 H          1 MOL1         0.3625
      26    H18     20.502211   17.729396   24.332295 H          1 MOL1         0.3625
@<TRIPOS>BOND
    1     1     2    1
    2     1     3    1
    3     1     4    1
    4     1     5    1
    5     5     6    1
    6     5     7    1
    7     5     8    1
    8     8     9    1
    9     8    10    1
   10     8    11    1
   11    11    12    1
   12    11    13    1
   13    11    14    1
   14    14    15    1
   15    14    16    1
   16    14    17    1
   17    17    18    1
   18    17    19    1
   19    19    20    1
   20    19    21    1
   21    19    22    1
   22    17    23    1
   23    23    24    1
   24    23    25    1
   25    23    26    1
@<TRIPOS>SUBSTRUCTURE
       1 MOL1            1 RESIDUE      1      MOL     
@<SCITEGIC>MOL_PROPERTY
VM2 Rank
SciTegic.value.IntegerValue
62

@<SCITEGIC>MOL_PROPERTY
Conf_Id
SciTegic.value.IntegerValue
257

@<SCITEGIC>MOL_PROPERTY
Probability
SciTegic.value.DoubleValue
0.02

@<SCITEGIC>MOL_PROPERTY
Sum Probability
SciTegic.value.DoubleValue
99.83

@<SCITEGIC>MOL_PROPERTY
Delta G
SciTegic.value.DoubleValue
4.047

@<SCITEGIC>MOL_PROPERTY
G
SciTegic.value.DoubleValue
27.759

@<SCITEGIC>MOL_PROPERTY
E
SciTegic.value.DoubleValue
-5.289

@<SCITEGIC>MOL_PROPERTY
-TS
SciTegic.value.DoubleValue
33.048

@<SCITEGIC>MOL_PROPERTY
U+W
SciTegic.value.DoubleValue
-26.751

@<SCITEGIC>MOL_PROPERTY
U
SciTegic.value.DoubleValue
27.376

@<SCITEGIC>MOL_PROPERTY
W
SciTegic.value.DoubleValue
-54.127

@<SCITEGIC>MOL_PROPERTY
W(PB)
SciTegic.value.DoubleValue
-56.398

@<SCITEGIC>MOL_PROPERTY
W(SA)
SciTegic.value.DoubleValue
2.271

@<SCITEGIC>MOL_PROPERTY
Valence
SciTegic.value.DoubleValue
5.849

@<SCITEGIC>MOL_PROPERTY
Coulomb
SciTegic.value.DoubleValue
20.574

@<SCITEGIC>MOL_PROPERTY
VdW
SciTegic.value.DoubleValue
0.953

@<SCITEGIC>MOL_PROPERTY
VdW6
SciTegic.value.DoubleValue
-8.734

@<SCITEGIC>MOL_PROPERTY
VdW12
SciTegic.value.DoubleValue
9.687

@<SCITEGIC>MOL_PROPERTY
Bond
SciTegic.value.DoubleValue
0.283

@<SCITEGIC>MOL_PROPERTY
Angle
SciTegic.value.DoubleValue
2.366

@<SCITEGIC>MOL_PROPERTY
Pdih
SciTegic.value.DoubleValue
3.200

@<SCITEGIC>MOL_PROPERTY
Idih
SciTegic.value.DoubleValue
0.000

@<SCITEGIC>MOL_PROPERTY
Tether
SciTegic.value.DoubleValue
0.000

@<TRIPOS>MOLECULE
guest-s13_vm2.mol2 : vm2 ligand conformer 63
          26          25           1
SMALL
USER_CHARGES
 
@<TRIPOS>ATOM
       1    C1      20.758876   18.669616   19.561288 C.3        1 MOL1        -0.2398
       2    H1      20.697783   19.690426   19.162257 H          1 MOL1         0.0972
       3    H2      21.696272   18.574975   20.123290 H          1 MOL1         0.0972
       4    H3      20.814024   17.979129   18.709758 H          1 MOL1         0.0972
       5    C2      19.532456   18.343299   20.443428 C.3        1 MOL1        -0.1383
       6    H4      19.632897   17.329312   20.855060 H          1 MOL1         0.0961
       7    H5      18.634483   18.330003   19.809978 H          1 MOL1         0.0961
       8    C3      19.313360   19.355392   21.593815 C.3        1 MOL1        -0.1407
       9    H6      19.186916   20.362645   21.173562 H          1 MOL1         0.0961
      10    H7      18.365724   19.112395   22.088677 H          1 MOL1         0.0961
      11    C4      20.466158   19.367664   22.630587 C.3        1 MOL1        -0.1407
      12    H8      21.375955   19.728276   22.132872 H          1 MOL1         0.0961
      13    H9      20.688107   18.345324   22.962367 H          1 MOL1         0.0961
      14    C5      20.189599   20.292090   23.849281 C.3        1 MOL1        -0.1472
      15    H10     21.134288   20.769152   24.141708 H          1 MOL1         0.0961
      16    H11     19.530280   21.117596   23.550210 H          1 MOL1         0.0961
      17    C6      19.610041   19.600766   25.108577 C.3        1 MOL1         0.1190
      18    H12     19.464824   20.379042   25.864216 H          1 MOL1         0.0923
      19    C7      18.243740   18.943406   24.854875 C.3        1 MOL1        -0.2463
      20    H13     17.542703   19.660102   24.409649 H          1 MOL1         0.0972
      21    H14     17.806215   18.593111   25.797724 H          1 MOL1         0.0972
      22    H15     18.331478   18.078958   24.186002 H          1 MOL1         0.0972
      23    N1      20.573770   18.615768   25.712149 N.4        1 MOL1        -0.5974
      24    H16     20.763678   17.840480   25.072696 H          1 MOL1         0.3625
      25    H17     21.470243   19.056673   25.936598 H          1 MOL1         0.3625
      26    H18     20.204970   18.215309   26.579323 H          1 MOL1         0.3625
@<TRIPOS>BOND
    1     1     2    1
    2     1     3    1
    3     1     4    1
    4     1     5    1
    5     5     6    1
    6     5     7    1
    7     5     8    1
    8     8     9    1
    9     8    10    1
   10     8    11    1
   11    11    12    1
   12    11    13    1
   13    11    14    1
   14    14    15    1
   15    14    16    1
   16    14    17    1
   17    17    18    1
   18    17    19    1
   19    19    20    1
   20    19    21    1
   21    19    22    1
   22    17    23    1
   23    23    24    1
   24    23    25    1
   25    23    26    1
@<TRIPOS>SUBSTRUCTURE
       1 MOL1            1 RESIDUE      1      MOL     
@<SCITEGIC>MOL_PROPERTY
VM2 Rank
SciTegic.value.IntegerValue
63

@<SCITEGIC>MOL_PROPERTY
Conf_Id
SciTegic.value.IntegerValue
984

@<SCITEGIC>MOL_PROPERTY
Probability
SciTegic.value.DoubleValue
0.02

@<SCITEGIC>MOL_PROPERTY
Sum Probability
SciTegic.value.DoubleValue
99.85

@<SCITEGIC>MOL_PROPERTY
Delta G
SciTegic.value.DoubleValue
4.049

@<SCITEGIC>MOL_PROPERTY
G
SciTegic.value.DoubleValue
27.761

@<SCITEGIC>MOL_PROPERTY
E
SciTegic.value.DoubleValue
-5.293

@<SCITEGIC>MOL_PROPERTY
-TS
SciTegic.value.DoubleValue
33.054

@<SCITEGIC>MOL_PROPERTY
U+W
SciTegic.value.DoubleValue
-26.755

@<SCITEGIC>MOL_PROPERTY
U
SciTegic.value.DoubleValue
27.509

@<SCITEGIC>MOL_PROPERTY
W
SciTegic.value.DoubleValue
-54.264

@<SCITEGIC>MOL_PROPERTY
W(PB)
SciTegic.value.DoubleValue
-56.496

@<SCITEGIC>MOL_PROPERTY
W(SA)
SciTegic.value.DoubleValue
2.232

@<SCITEGIC>MOL_PROPERTY
Valence
SciTegic.value.DoubleValue
6.375

@<SCITEGIC>MOL_PROPERTY
Coulomb
SciTegic.value.DoubleValue
20.014

@<SCITEGIC>MOL_PROPERTY
VdW
SciTegic.value.DoubleValue
1.120

@<SCITEGIC>MOL_PROPERTY
VdW6
SciTegic.value.DoubleValue
-8.976

@<SCITEGIC>MOL_PROPERTY
VdW12
SciTegic.value.DoubleValue
10.096

@<SCITEGIC>MOL_PROPERTY
Bond
SciTegic.value.DoubleValue
0.304

@<SCITEGIC>MOL_PROPERTY
Angle
SciTegic.value.DoubleValue
1.985

@<SCITEGIC>MOL_PROPERTY
Pdih
SciTegic.value.DoubleValue
4.086

@<SCITEGIC>MOL_PROPERTY
Idih
SciTegic.value.DoubleValue
0.000

@<SCITEGIC>MOL_PROPERTY
Tether
SciTegic.value.DoubleValue
0.000

@<TRIPOS>MOLECULE
guest-s13_vm2.mol2 : vm2 ligand conformer 64
          26          25           1
SMALL
USER_CHARGES
 
@<TRIPOS>ATOM
       1    C1      20.643120   19.924269   19.961675 C.3        1 MOL1        -0.2398
       2    H1      21.566324   20.048441   19.381009 H          1 MOL1         0.0972
       3    H2      19.800980   20.182898   19.306718 H          1 MOL1         0.0972
       4    H3      20.666792   20.649956   20.781994 H          1 MOL1         0.0972
       5    C2      20.517370   18.470094   20.473011 C.3        1 MOL1        -0.1383
       6    H4      21.400974   18.195419   21.065742 H          1 MOL1         0.0961
       7    H5      20.520972   17.803105   19.599499 H          1 MOL1         0.0961
       8    C3      19.221508   18.213526   21.284850 C.3        1 MOL1        -0.1407
       9    H6      18.421417   18.886491   20.946967 H          1 MOL1         0.0961
      10    H7      18.869852   17.198335   21.054250 H          1 MOL1         0.0961
      11    C4      19.385804   18.311003   22.823723 C.3        1 MOL1        -0.1407
      12    H8      20.112271   17.556797   23.154175 H          1 MOL1         0.0961
      13    H9      18.426479   18.034530   23.279131 H          1 MOL1         0.0961
      14    C5      19.818349   19.713509   23.328235 C.3        1 MOL1        -0.1472
      15    H10     20.821264   19.939786   22.946796 H          1 MOL1         0.0961
      16    H11     19.148674   20.475823   22.908858 H          1 MOL1         0.0961
      17    C6      19.853191   19.870889   24.867047 C.3        1 MOL1         0.1190
      18    H12     20.245501   20.869897   25.081287 H          1 MOL1         0.0923
      19    C7      18.449953   19.782411   25.492681 C.3        1 MOL1        -0.2463
      20    H13     18.489164   20.040497   26.558053 H          1 MOL1         0.0972
      21    H14     18.029129   18.773621   25.409322 H          1 MOL1         0.0972
      22    H15     17.760984   20.484124   25.006421 H          1 MOL1         0.0972
      23    N1      20.798707   18.902300   25.522779 N.4        1 MOL1        -0.5974
      24    H16     20.856041   19.060853   26.532702 H          1 MOL1         0.3625
      25    H17     20.496888   17.935331   25.380573 H          1 MOL1         0.3625
      26    H18     21.746521   18.988660   25.145237 H          1 MOL1         0.3625
@<TRIPOS>BOND
    1     1     2    1
    2     1     3    1
    3     1     4    1
    4     1     5    1
    5     5     6    1
    6     5     7    1
    7     5     8    1
    8     8     9    1
    9     8    10    1
   10     8    11    1
   11    11    12    1
   12    11    13    1
   13    11    14    1
   14    14    15    1
   15    14    16    1
   16    14    17    1
   17    17    18    1
   18    17    19    1
   19    19    20    1
   20    19    21    1
   21    19    22    1
   22    17    23    1
   23    23    24    1
   24    23    25    1
   25    23    26    1
@<TRIPOS>SUBSTRUCTURE
       1 MOL1            1 RESIDUE      1      MOL     
@<SCITEGIC>MOL_PROPERTY
VM2 Rank
SciTegic.value.IntegerValue
64

@<SCITEGIC>MOL_PROPERTY
Conf_Id
SciTegic.value.IntegerValue
1110

@<SCITEGIC>MOL_PROPERTY
Probability
SciTegic.value.DoubleValue
0.02

@<SCITEGIC>MOL_PROPERTY
Sum Probability
SciTegic.value.DoubleValue
99.86

@<SCITEGIC>MOL_PROPERTY
Delta G
SciTegic.value.DoubleValue
4.061

@<SCITEGIC>MOL_PROPERTY
G
SciTegic.value.DoubleValue
27.773

@<SCITEGIC>MOL_PROPERTY
E
SciTegic.value.DoubleValue
-5.249

@<SCITEGIC>MOL_PROPERTY
-TS
SciTegic.value.DoubleValue
33.022

@<SCITEGIC>MOL_PROPERTY
U+W
SciTegic.value.DoubleValue
-26.711

@<SCITEGIC>MOL_PROPERTY
U
SciTegic.value.DoubleValue
27.573

@<SCITEGIC>MOL_PROPERTY
W
SciTegic.value.DoubleValue
-54.284

@<SCITEGIC>MOL_PROPERTY
W(PB)
SciTegic.value.DoubleValue
-56.537

@<SCITEGIC>MOL_PROPERTY
W(SA)
SciTegic.value.DoubleValue
2.253

@<SCITEGIC>MOL_PROPERTY
Valence
SciTegic.value.DoubleValue
6.363

@<SCITEGIC>MOL_PROPERTY
Coulomb
SciTegic.value.DoubleValue
20.026

@<SCITEGIC>MOL_PROPERTY
VdW
SciTegic.value.DoubleValue
1.184

@<SCITEGIC>MOL_PROPERTY
VdW6
SciTegic.value.DoubleValue
-8.939

@<SCITEGIC>MOL_PROPERTY
VdW12
SciTegic.value.DoubleValue
10.123

@<SCITEGIC>MOL_PROPERTY
Bond
SciTegic.value.DoubleValue
0.298

@<SCITEGIC>MOL_PROPERTY
Angle
SciTegic.value.DoubleValue
2.018

@<SCITEGIC>MOL_PROPERTY
Pdih
SciTegic.value.DoubleValue
4.047

@<SCITEGIC>MOL_PROPERTY
Idih
SciTegic.value.DoubleValue
0.000

@<SCITEGIC>MOL_PROPERTY
Tether
SciTegic.value.DoubleValue
0.000

@<TRIPOS>MOLECULE
guest-s13_vm2.mol2 : vm2 ligand conformer 65
          26          25           1
SMALL
USER_CHARGES
 
@<TRIPOS>ATOM
       1    C1      19.550865   18.224577   19.406726 C.3        1 MOL1        -0.2398
       2    H1      20.071969   17.454614   18.823080 H          1 MOL1         0.0972
       3    H2      18.580667   17.814142   19.715723 H          1 MOL1         0.0972
       4    H3      19.365006   19.080494   18.744848 H          1 MOL1         0.0972
       5    C2      20.391881   18.642069   20.631745 C.3        1 MOL1        -0.1383
       6    H4      20.592466   17.754728   21.245927 H          1 MOL1         0.0961
       7    H5      21.366961   19.017552   20.291283 H          1 MOL1         0.0961
       8    C3      19.677452   19.729805   21.469161 C.3        1 MOL1        -0.1407
       9    H6      19.461359   20.587722   20.817585 H          1 MOL1         0.0961
      10    H7      18.705438   19.352557   21.809115 H          1 MOL1         0.0961
      11    C4      20.519705   20.229883   22.672014 C.3        1 MOL1        -0.1407
      12    H8      20.090870   21.165184   23.057579 H          1 MOL1         0.0961
      13    H9      21.519999   20.497790   22.304548 H          1 MOL1         0.0961
      14    C5      20.667566   19.210918   23.836036 C.3        1 MOL1        -0.1472
      15    H10     20.600617   18.180642   23.467105 H          1 MOL1         0.0961
      16    H11     21.681872   19.315612   24.243216 H          1 MOL1         0.0961
      17    C6      19.674194   19.415669   25.005011 C.3        1 MOL1         0.1190
      18    H12     19.795948   20.436334   25.380579 H          1 MOL1         0.0923
      19    C7      18.207779   19.232840   24.578705 C.3        1 MOL1        -0.2463
      20    H13     17.540616   19.303530   25.446549 H          1 MOL1         0.0972
      21    H14     18.049815   18.255499   24.105970 H          1 MOL1         0.0972
      22    H15     17.902835   20.014815   23.873882 H          1 MOL1         0.0972
      23    N1      19.998559   18.502240   26.154602 N.4        1 MOL1        -0.5974
      24    H16     20.957111   18.640053   26.487449 H          1 MOL1         0.3625
      25    H17     19.374396   18.665618   26.949672 H          1 MOL1         0.3625
      26    H18     19.903489   17.518374   25.889287 H          1 MOL1         0.3625
@<TRIPOS>BOND
    1     1     2    1
    2     1     3    1
    3     1     4    1
    4     1     5    1
    5     5     6    1
    6     5     7    1
    7     5     8    1
    8     8     9    1
    9     8    10    1
   10     8    11    1
   11    11    12    1
   12    11    13    1
   13    11    14    1
   14    14    15    1
   15    14    16    1
   16    14    17    1
   17    17    18    1
   18    17    19    1
   19    19    20    1
   20    19    21    1
   21    19    22    1
   22    17    23    1
   23    23    24    1
   24    23    25    1
   25    23    26    1
@<TRIPOS>SUBSTRUCTURE
       1 MOL1            1 RESIDUE      1      MOL     
@<SCITEGIC>MOL_PROPERTY
VM2 Rank
SciTegic.value.IntegerValue
65

@<SCITEGIC>MOL_PROPERTY
Conf_Id
SciTegic.value.IntegerValue
264

@<SCITEGIC>MOL_PROPERTY
Probability
SciTegic.value.DoubleValue
0.02

@<SCITEGIC>MOL_PROPERTY
Sum Probability
SciTegic.value.DoubleValue
99.88

@<SCITEGIC>MOL_PROPERTY
Delta G
SciTegic.value.DoubleValue
4.150

@<SCITEGIC>MOL_PROPERTY
G
SciTegic.value.DoubleValue
27.862

@<SCITEGIC>MOL_PROPERTY
E
SciTegic.value.DoubleValue
-5.039

@<SCITEGIC>MOL_PROPERTY
-TS
SciTegic.value.DoubleValue
32.901

@<SCITEGIC>MOL_PROPERTY
U+W
SciTegic.value.DoubleValue
-26.501

@<SCITEGIC>MOL_PROPERTY
U
SciTegic.value.DoubleValue
27.603

@<SCITEGIC>MOL_PROPERTY
W
SciTegic.value.DoubleValue
-54.104

@<SCITEGIC>MOL_PROPERTY
W(PB)
SciTegic.value.DoubleValue
-56.397

@<SCITEGIC>MOL_PROPERTY
W(SA)
SciTegic.value.DoubleValue
2.293

@<SCITEGIC>MOL_PROPERTY
Valence
SciTegic.value.DoubleValue
6.568

@<SCITEGIC>MOL_PROPERTY
Coulomb
SciTegic.value.DoubleValue
19.917

@<SCITEGIC>MOL_PROPERTY
VdW
SciTegic.value.DoubleValue
1.118

@<SCITEGIC>MOL_PROPERTY
VdW6
SciTegic.value.DoubleValue
-8.472

@<SCITEGIC>MOL_PROPERTY
VdW12
SciTegic.value.DoubleValue
9.590

@<SCITEGIC>MOL_PROPERTY
Bond
SciTegic.value.DoubleValue
0.286

@<SCITEGIC>MOL_PROPERTY
Angle
SciTegic.value.DoubleValue
1.909

@<SCITEGIC>MOL_PROPERTY
Pdih
SciTegic.value.DoubleValue
4.373

@<SCITEGIC>MOL_PROPERTY
Idih
SciTegic.value.DoubleValue
0.000

@<SCITEGIC>MOL_PROPERTY
Tether
SciTegic.value.DoubleValue
0.000

@<TRIPOS>MOLECULE
guest-s13_vm2.mol2 : vm2 ligand conformer 66
          26          25           1
SMALL
USER_CHARGES
 
@<TRIPOS>ATOM
       1    C1      20.439790   19.035661   19.480614 C.3        1 MOL1        -0.2398
       2    H1      21.526269   19.153380   19.584065 H          1 MOL1         0.0972
       3    H2      20.241906   18.610628   18.488084 H          1 MOL1         0.0972
       4    H3      19.981468   20.031690   19.508171 H          1 MOL1         0.0972
       5    C2      19.872596   18.114620   20.584950 C.3        1 MOL1        -0.1383
       6    H4      20.264357   17.099580   20.429814 H          1 MOL1         0.0961
       7    H5      18.780875   18.041024   20.482398 H          1 MOL1         0.0961
       8    C3      20.235796   18.570427   22.019119 C.3        1 MOL1        -0.1407
       9    H6      19.925139   17.774920   22.706261 H          1 MOL1         0.0961
      10    H7      21.326945   18.662753   22.108581 H          1 MOL1         0.0961
      11    C4      19.557204   19.900418   22.433629 C.3        1 MOL1        -0.1407
      12    H8      18.465829   19.782776   22.404228 H          1 MOL1         0.0961
      13    H9      19.792061   20.671332   21.689085 H          1 MOL1         0.0961
      14    C5      19.997687   20.450462   23.819928 C.3        1 MOL1        -0.1472
      15    H10     21.071611   20.677067   23.795221 H          1 MOL1         0.0961
      16    H11     19.500490   21.418446   23.966012 H          1 MOL1         0.0961
      17    C6      19.695525   19.580615   25.067118 C.3        1 MOL1         0.1190
      18    H12     19.854539   20.219413   25.941430 H          1 MOL1         0.0923
      19    C7      18.234219   19.100877   25.111250 C.3        1 MOL1        -0.2463
      20    H13     17.544246   19.946961   25.003514 H          1 MOL1         0.0972
      21    H14     18.018145   18.615296   26.070725 H          1 MOL1         0.0972
      22    H15     18.020527   18.378741   24.314242 H          1 MOL1         0.0972
      23    N1      20.655184   18.434920   25.237391 N.4        1 MOL1        -0.5974
      24    H16     21.624568   18.761874   25.280651 H          1 MOL1         0.3625
      25    H17     20.469322   17.917754   26.101407 H          1 MOL1         0.3625
      26    H18     20.587649   17.773255   24.461743 H          1 MOL1         0.3625
@<TRIPOS>BOND
    1     1     2    1
    2     1     3    1
    3     1     4    1
    4     1     5    1
    5     5     6    1
    6     5     7    1
    7     5     8    1
    8     8     9    1
    9     8    10    1
   10     8    11    1
   11    11    12    1
   12    11    13    1
   13    11    14    1
   14    14    15    1
   15    14    16    1
   16    14    17    1
   17    17    18    1
   18    17    19    1
   19    19    20    1
   20    19    21    1
   21    19    22    1
   22    17    23    1
   23    23    24    1
   24    23    25    1
   25    23    26    1
@<TRIPOS>SUBSTRUCTURE
       1 MOL1            1 RESIDUE      1      MOL     
@<SCITEGIC>MOL_PROPERTY
VM2 Rank
SciTegic.value.IntegerValue
66

@<SCITEGIC>MOL_PROPERTY
Conf_Id
SciTegic.value.IntegerValue
752

@<SCITEGIC>MOL_PROPERTY
Probability
SciTegic.value.DoubleValue
0.02

@<SCITEGIC>MOL_PROPERTY
Sum Probability
SciTegic.value.DoubleValue
99.90

@<SCITEGIC>MOL_PROPERTY
Delta G
SciTegic.value.DoubleValue
4.158

@<SCITEGIC>MOL_PROPERTY
G
SciTegic.value.DoubleValue
27.870

@<SCITEGIC>MOL_PROPERTY
E
SciTegic.value.DoubleValue
-5.300

@<SCITEGIC>MOL_PROPERTY
-TS
SciTegic.value.DoubleValue
33.169

@<SCITEGIC>MOL_PROPERTY
U+W
SciTegic.value.DoubleValue
-26.761

@<SCITEGIC>MOL_PROPERTY
U
SciTegic.value.DoubleValue
27.482

@<SCITEGIC>MOL_PROPERTY
W
SciTegic.value.DoubleValue
-54.244

@<SCITEGIC>MOL_PROPERTY
W(PB)
SciTegic.value.DoubleValue
-56.495

@<SCITEGIC>MOL_PROPERTY
W(SA)
SciTegic.value.DoubleValue
2.251

@<SCITEGIC>MOL_PROPERTY
Valence
SciTegic.value.DoubleValue
5.284

@<SCITEGIC>MOL_PROPERTY
Coulomb
SciTegic.value.DoubleValue
21.247

@<SCITEGIC>MOL_PROPERTY
VdW
SciTegic.value.DoubleValue
0.951

@<SCITEGIC>MOL_PROPERTY
VdW6
SciTegic.value.DoubleValue
-9.415

@<SCITEGIC>MOL_PROPERTY
VdW12
SciTegic.value.DoubleValue
10.366

@<SCITEGIC>MOL_PROPERTY
Bond
SciTegic.value.DoubleValue
0.323

@<SCITEGIC>MOL_PROPERTY
Angle
SciTegic.value.DoubleValue
2.523

@<SCITEGIC>MOL_PROPERTY
Pdih
SciTegic.value.DoubleValue
2.438

@<SCITEGIC>MOL_PROPERTY
Idih
SciTegic.value.DoubleValue
0.000

@<SCITEGIC>MOL_PROPERTY
Tether
SciTegic.value.DoubleValue
0.000

@<TRIPOS>MOLECULE
guest-s13_vm2.mol2 : vm2 ligand conformer 67
          26          25           1
SMALL
USER_CHARGES
 
@<TRIPOS>ATOM
       1    C1      21.543561   19.283128   21.033063 C.3        1 MOL1        -0.2398
       2    H1      21.766646   18.470425   20.329700 H          1 MOL1         0.0972
       3    H2      22.224279   20.114953   20.810453 H          1 MOL1         0.0972
       4    H3      21.772452   18.930282   22.044816 H          1 MOL1         0.0972
       5    C2      20.072339   19.738282   20.902533 C.3        1 MOL1        -0.1383
       6    H4      19.925359   20.156996   19.897150 H          1 MOL1         0.0961
       7    H5      19.864352   20.561969   21.597077 H          1 MOL1         0.0961
       8    C3      19.052428   18.590936   21.106644 C.3        1 MOL1        -0.1407
       9    H6      18.042005   18.982781   20.925864 H          1 MOL1         0.0961
      10    H7      19.219197   17.832884   20.328960 H          1 MOL1         0.0961
      11    C4      19.077279   17.889169   22.491486 C.3        1 MOL1        -0.1407
      12    H8      20.041546   17.391912   22.653262 H          1 MOL1         0.0961
      13    H9      18.337775   17.077301   22.456064 H          1 MOL1         0.0961
      14    C5      18.712545   18.807075   23.690072 C.3        1 MOL1        -0.1472
      15    H10     17.928790   19.509935   23.377842 H          1 MOL1         0.0961
      16    H11     18.265626   18.193161   24.483337 H          1 MOL1         0.0961
      17    C6      19.905297   19.584435   24.291979 C.3        1 MOL1         0.1190
      18    H12     20.422512   20.115303   23.489508 H          1 MOL1         0.0923
      19    C7      19.406813   20.623346   25.308914 C.3        1 MOL1        -0.2463
      20    H13     20.245888   21.197680   25.720569 H          1 MOL1         0.0972
      21    H14     18.879882   20.142334   26.142510 H          1 MOL1         0.0972
      22    H15     18.718847   21.334146   24.834379 H          1 MOL1         0.0972
      23    N1      20.917738   18.671629   24.929308 N.4        1 MOL1        -0.5974
      24    H16     21.715330   19.196922   25.298590 H          1 MOL1         0.3625
      25    H17     20.508848   18.149652   25.708899 H          1 MOL1         0.3625
      26    H18     21.281600   17.989021   24.259710 H          1 MOL1         0.3625
@<TRIPOS>BOND
    1     1     2    1
    2     1     3    1
    3     1     4    1
    4     1     5    1
    5     5     6    1
    6     5     7    1
    7     5     8    1
    8     8     9    1
    9     8    10    1
   10     8    11    1
   11    11    12    1
   12    11    13    1
   13    11    14    1
   14    14    15    1
   15    14    16    1
   16    14    17    1
   17    17    18    1
   18    17    19    1
   19    19    20    1
   20    19    21    1
   21    19    22    1
   22    17    23    1
   23    23    24    1
   24    23    25    1
   25    23    26    1
@<TRIPOS>SUBSTRUCTURE
       1 MOL1            1 RESIDUE      1      MOL     
@<SCITEGIC>MOL_PROPERTY
VM2 Rank
SciTegic.value.IntegerValue
67

@<SCITEGIC>MOL_PROPERTY
Conf_Id
SciTegic.value.IntegerValue
516

@<SCITEGIC>MOL_PROPERTY
Probability
SciTegic.value.DoubleValue
0.01

@<SCITEGIC>MOL_PROPERTY
Sum Probability
SciTegic.value.DoubleValue
99.91

@<SCITEGIC>MOL_PROPERTY
Delta G
SciTegic.value.DoubleValue
4.243

@<SCITEGIC>MOL_PROPERTY
G
SciTegic.value.DoubleValue
27.955

@<SCITEGIC>MOL_PROPERTY
E
SciTegic.value.DoubleValue
-5.588

@<SCITEGIC>MOL_PROPERTY
-TS
SciTegic.value.DoubleValue
33.543

@<SCITEGIC>MOL_PROPERTY
U+W
SciTegic.value.DoubleValue
-27.050

@<SCITEGIC>MOL_PROPERTY
U
SciTegic.value.DoubleValue
27.275

@<SCITEGIC>MOL_PROPERTY
W
SciTegic.value.DoubleValue
-54.324

@<SCITEGIC>MOL_PROPERTY
W(PB)
SciTegic.value.DoubleValue
-56.530

@<SCITEGIC>MOL_PROPERTY
W(SA)
SciTegic.value.DoubleValue
2.205

@<SCITEGIC>MOL_PROPERTY
Valence
SciTegic.value.DoubleValue
5.855

@<SCITEGIC>MOL_PROPERTY
Coulomb
SciTegic.value.DoubleValue
21.051

@<SCITEGIC>MOL_PROPERTY
VdW
SciTegic.value.DoubleValue
0.368

@<SCITEGIC>MOL_PROPERTY
VdW6
SciTegic.value.DoubleValue
-9.999

@<SCITEGIC>MOL_PROPERTY
VdW12
SciTegic.value.DoubleValue
10.367

@<SCITEGIC>MOL_PROPERTY
Bond
SciTegic.value.DoubleValue
0.292

@<SCITEGIC>MOL_PROPERTY
Angle
SciTegic.value.DoubleValue
2.256

@<SCITEGIC>MOL_PROPERTY
Pdih
SciTegic.value.DoubleValue
3.307

@<SCITEGIC>MOL_PROPERTY
Idih
SciTegic.value.DoubleValue
0.000

@<SCITEGIC>MOL_PROPERTY
Tether
SciTegic.value.DoubleValue
0.000

@<TRIPOS>MOLECULE
guest-s13_vm2.mol2 : vm2 ligand conformer 68
          26          25           1
SMALL
USER_CHARGES
 
@<TRIPOS>ATOM
       1    C1      21.456205   19.095410   20.565593 C.3        1 MOL1        -0.2398
       2    H1      21.808736   18.818390   21.566566 H          1 MOL1         0.0972
       3    H2      22.205970   18.743663   19.845185 H          1 MOL1         0.0972
       4    H3      21.414564   20.190239   20.498994 H          1 MOL1         0.0972
       5    C2      20.079236   18.465999   20.261379 C.3        1 MOL1        -0.1383
       6    H4      20.140693   17.376275   20.389580 H          1 MOL1         0.0961
       7    H5      19.841368   18.634323   19.201742 H          1 MOL1         0.0961
       8    C3      18.916970   19.025237   21.121206 C.3        1 MOL1        -0.1407
       9    H6      18.780410   20.096866   20.920954 H          1 MOL1         0.0961
      10    H7      17.991527   18.540550   20.780497 H          1 MOL1         0.0961
      11    C4      19.061194   18.775171   22.645098 C.3        1 MOL1        -0.1407
      12    H8      19.643312   17.860327   22.816072 H          1 MOL1         0.0961
      13    H9      18.060391   18.581079   23.052894 H          1 MOL1         0.0961
      14    C5      19.681300   19.979444   23.406467 C.3        1 MOL1        -0.1472
      15    H10     20.631378   20.268823   22.944095 H          1 MOL1         0.0961
      16    H11     19.021875   20.850480   23.296840 H          1 MOL1         0.0961
      17    C6      19.931593   19.735880   24.913471 C.3        1 MOL1         0.1190
      18    H12     20.373958   20.650114   25.321281 H          1 MOL1         0.0923
      19    C7      18.626101   19.468049   25.682614 C.3        1 MOL1        -0.2463
      20    H13     17.894587   20.264601   25.498399 H          1 MOL1         0.0972
      21    H14     18.817050   19.435315   26.762256 H          1 MOL1         0.0972
      22    H15     18.173968   18.511805   25.393690 H          1 MOL1         0.0972
      23    N1      20.935401   18.642810   25.158172 N.4        1 MOL1        -0.5974
      24    H16     20.595017   17.741960   24.813494 H          1 MOL1         0.3625
      25    H17     21.824441   18.837433   24.689220 H          1 MOL1         0.3625
      26    H18     21.133780   18.534378   26.156830 H          1 MOL1         0.3625
@<TRIPOS>BOND
    1     1     2    1
    2     1     3    1
    3     1     4    1
    4     1     5    1
    5     5     6    1
    6     5     7    1
    7     5     8    1
    8     8     9    1
    9     8    10    1
   10     8    11    1
   11    11    12    1
   12    11    13    1
   13    11    14    1
   14    14    15    1
   15    14    16    1
   16    14    17    1
   17    17    18    1
   18    17    19    1
   19    19    20    1
   20    19    21    1
   21    19    22    1
   22    17    23    1
   23    23    24    1
   24    23    25    1
   25    23    26    1
@<TRIPOS>SUBSTRUCTURE
       1 MOL1            1 RESIDUE      1      MOL     
@<SCITEGIC>MOL_PROPERTY
VM2 Rank
SciTegic.value.IntegerValue
68

@<SCITEGIC>MOL_PROPERTY
Conf_Id
SciTegic.value.IntegerValue
428

@<SCITEGIC>MOL_PROPERTY
Probability
SciTegic.value.DoubleValue
0.01

@<SCITEGIC>MOL_PROPERTY
Sum Probability
SciTegic.value.DoubleValue
99.92

@<SCITEGIC>MOL_PROPERTY
Delta G
SciTegic.value.DoubleValue
4.262

@<SCITEGIC>MOL_PROPERTY
G
SciTegic.value.DoubleValue
27.974

@<SCITEGIC>MOL_PROPERTY
E
SciTegic.value.DoubleValue
-5.112

@<SCITEGIC>MOL_PROPERTY
-TS
SciTegic.value.DoubleValue
33.086

@<SCITEGIC>MOL_PROPERTY
U+W
SciTegic.value.DoubleValue
-26.574

@<SCITEGIC>MOL_PROPERTY
U
SciTegic.value.DoubleValue
27.751

@<SCITEGIC>MOL_PROPERTY
W
SciTegic.value.DoubleValue
-54.325

@<SCITEGIC>MOL_PROPERTY
W(PB)
SciTegic.value.DoubleValue
-56.570

@<SCITEGIC>MOL_PROPERTY
W(SA)
SciTegic.value.DoubleValue
2.245

@<SCITEGIC>MOL_PROPERTY
Valence
SciTegic.value.DoubleValue
6.249

@<SCITEGIC>MOL_PROPERTY
Coulomb
SciTegic.value.DoubleValue
20.444

@<SCITEGIC>MOL_PROPERTY
VdW
SciTegic.value.DoubleValue
1.057

@<SCITEGIC>MOL_PROPERTY
VdW6
SciTegic.value.DoubleValue
-9.100

@<SCITEGIC>MOL_PROPERTY
VdW12
SciTegic.value.DoubleValue
10.157

@<SCITEGIC>MOL_PROPERTY
Bond
SciTegic.value.DoubleValue
0.302

@<SCITEGIC>MOL_PROPERTY
Angle
SciTegic.value.DoubleValue
1.930

@<SCITEGIC>MOL_PROPERTY
Pdih
SciTegic.value.DoubleValue
4.017

@<SCITEGIC>MOL_PROPERTY
Idih
SciTegic.value.DoubleValue
0.000

@<SCITEGIC>MOL_PROPERTY
Tether
SciTegic.value.DoubleValue
0.000

@<TRIPOS>MOLECULE
guest-s13_vm2.mol2 : vm2 ligand conformer 69
          26          25           1
SMALL
USER_CHARGES
 
@<TRIPOS>ATOM
       1    C1      21.562478   18.856672   21.116044 C.3        1 MOL1        -0.2398
       2    H1      21.582896   18.292804   22.053769 H          1 MOL1         0.0972
       3    H2      22.232007   18.344157   20.413215 H          1 MOL1         0.0972
       4    H3      21.980676   19.853718   21.305531 H          1 MOL1         0.0972
       5    C2      20.137249   18.954835   20.524250 C.3        1 MOL1        -0.1383
       6    H4      19.729276   17.950476   20.344584 H          1 MOL1         0.0961
       7    H5      20.218082   19.428260   19.535681 H          1 MOL1         0.0961
       8    C3      19.152642   19.790904   21.382492 C.3        1 MOL1        -0.1407
       9    H6      19.677062   20.629714   21.859084 H          1 MOL1         0.0961
      10    H7      18.427461   20.254576   20.699461 H          1 MOL1         0.0961
      11    C4      18.339398   18.981372   22.428641 C.3        1 MOL1        -0.1407
      12    H8      17.775286   18.193938   21.910252 H          1 MOL1         0.0961
      13    H9      17.578831   19.641164   22.866988 H          1 MOL1         0.0961
      14    C5      19.163496   18.332434   23.570749 C.3        1 MOL1        -0.1472
      15    H10     18.472612   17.853456   24.277066 H          1 MOL1         0.0961
      16    H11     19.766009   17.517839   23.151324 H          1 MOL1         0.0961
      17    C6      20.083589   19.306305   24.343819 C.3        1 MOL1         0.1190
      18    H12     20.751510   19.791625   23.626138 H          1 MOL1         0.0923
      19    C7      19.282677   20.397340   25.076433 C.3        1 MOL1        -0.2463
      20    H13     18.561602   19.957427   25.776513 H          1 MOL1         0.0972
      21    H14     18.732868   21.029416   24.369427 H          1 MOL1         0.0972
      22    H15     19.953262   21.052863   25.645485 H          1 MOL1         0.0972
      23    N1      20.966469   18.568137   25.311571 N.4        1 MOL1        -0.5974
      24    H16     21.539429   17.863221   24.839358 H          1 MOL1         0.3625
      25    H17     21.604939   19.205288   25.796166 H          1 MOL1         0.3625
      26    H18     20.415404   18.087008   26.027368 H          1 MOL1         0.3625
@<TRIPOS>BOND
    1     1     2    1
    2     1     3    1
    3     1     4    1
    4     1     5    1
    5     5     6    1
    6     5     7    1
    7     5     8    1
    8     8     9    1
    9     8    10    1
   10     8    11    1
   11    11    12    1
   12    11    13    1
   13    11    14    1
   14    14    15    1
   15    14    16    1
   16    14    17    1
   17    17    18    1
   18    17    19    1
   19    19    20    1
   20    19    21    1
   21    19    22    1
   22    17    23    1
   23    23    24    1
   24    23    25    1
   25    23    26    1
@<TRIPOS>SUBSTRUCTURE
       1 MOL1            1 RESIDUE      1      MOL     
@<SCITEGIC>MOL_PROPERTY
VM2 Rank
SciTegic.value.IntegerValue
69

@<SCITEGIC>MOL_PROPERTY
Conf_Id
SciTegic.value.IntegerValue
551

@<SCITEGIC>MOL_PROPERTY
Probability
SciTegic.value.DoubleValue
0.01

@<SCITEGIC>MOL_PROPERTY
Sum Probability
SciTegic.value.DoubleValue
99.93

@<SCITEGIC>MOL_PROPERTY
Delta G
SciTegic.value.DoubleValue
4.471

@<SCITEGIC>MOL_PROPERTY
G
SciTegic.value.DoubleValue
28.183

@<SCITEGIC>MOL_PROPERTY
E
SciTegic.value.DoubleValue
-5.280

@<SCITEGIC>MOL_PROPERTY
-TS
SciTegic.value.DoubleValue
33.463

@<SCITEGIC>MOL_PROPERTY
U+W
SciTegic.value.DoubleValue
-26.742

@<SCITEGIC>MOL_PROPERTY
U
SciTegic.value.DoubleValue
27.819

@<SCITEGIC>MOL_PROPERTY
W
SciTegic.value.DoubleValue
-54.561

@<SCITEGIC>MOL_PROPERTY
W(PB)
SciTegic.value.DoubleValue
-56.769

@<SCITEGIC>MOL_PROPERTY
W(SA)
SciTegic.value.DoubleValue
2.208

@<SCITEGIC>MOL_PROPERTY
Valence
SciTegic.value.DoubleValue
6.496

@<SCITEGIC>MOL_PROPERTY
Coulomb
SciTegic.value.DoubleValue
20.856

@<SCITEGIC>MOL_PROPERTY
VdW
SciTegic.value.DoubleValue
0.467

@<SCITEGIC>MOL_PROPERTY
VdW6
SciTegic.value.DoubleValue
-10.243

@<SCITEGIC>MOL_PROPERTY
VdW12
SciTegic.value.DoubleValue
10.710

@<SCITEGIC>MOL_PROPERTY
Bond
SciTegic.value.DoubleValue
0.303

@<SCITEGIC>MOL_PROPERTY
Angle
SciTegic.value.DoubleValue
2.526

@<SCITEGIC>MOL_PROPERTY
Pdih
SciTegic.value.DoubleValue
3.667

@<SCITEGIC>MOL_PROPERTY
Idih
SciTegic.value.DoubleValue
0.000

@<SCITEGIC>MOL_PROPERTY
Tether
SciTegic.value.DoubleValue
0.000

@<TRIPOS>MOLECULE
guest-s13_vm2.mol2 : vm2 ligand conformer 70
          26          25           1
SMALL
USER_CHARGES
 
@<TRIPOS>ATOM
       1    C1      20.017115   20.205257   20.160798 C.3        1 MOL1        -0.2398
       2    H1      20.628730   21.051162   19.821253 H          1 MOL1         0.0972
       3    H2      19.679363   19.658749   19.270720 H          1 MOL1         0.0972
       4    H3      19.134788   20.618525   20.663432 H          1 MOL1         0.0972
       5    C2      20.836922   19.288192   21.097297 C.3        1 MOL1        -0.1383
       6    H4      21.165531   19.856075   21.974710 H          1 MOL1         0.0961
       7    H5      21.756046   18.992223   20.572563 H          1 MOL1         0.0961
       8    C3      20.079877   18.001012   21.515904 C.3        1 MOL1        -0.1407
       9    H6      19.762370   17.483894   20.599849 H          1 MOL1         0.0961
      10    H7      20.777186   17.312681   22.012849 H          1 MOL1         0.0961
      11    C4      18.832679   18.211122   22.418418 C.3        1 MOL1        -0.1407
      12    H8      18.143504   17.376766   22.228433 H          1 MOL1         0.0961
      13    H9      18.276399   19.109068   22.125524 H          1 MOL1         0.0961
      14    C5      19.127106   18.216836   23.943459 C.3        1 MOL1        -0.1472
      15    H10     18.172714   18.247775   24.485659 H          1 MOL1         0.0961
      16    H11     19.591043   17.257648   24.208415 H          1 MOL1         0.0961
      17    C6      20.029516   19.361288   24.457110 C.3        1 MOL1         0.1190
      18    H12     20.973440   19.330623   23.907158 H          1 MOL1         0.0923
      19    C7      19.379727   20.742205   24.256582 C.3        1 MOL1        -0.2463
      20    H13     20.027316   21.534963   24.650711 H          1 MOL1         0.0972
      21    H14     18.413679   20.803944   24.772811 H          1 MOL1         0.0972
      22    H15     19.213294   20.955766   23.195033 H          1 MOL1         0.0972
      23    N1      20.385058   19.162087   25.904433 N.4        1 MOL1        -0.5974
      24    H16     19.552706   19.177348   26.499758 H          1 MOL1         0.3625
      25    H17     20.856164   18.265876   26.057583 H          1 MOL1         0.3625
      26    H18     21.013545   19.897414   26.240141 H          1 MOL1         0.3625
@<TRIPOS>BOND
    1     1     2    1
    2     1     3    1
    3     1     4    1
    4     1     5    1
    5     5     6    1
    6     5     7    1
    7     5     8    1
    8     8     9    1
    9     8    10    1
   10     8    11    1
   11    11    12    1
   12    11    13    1
   13    11    14    1
   14    14    15    1
   15    14    16    1
   16    14    17    1
   17    17    18    1
   18    17    19    1
   19    19    20    1
   20    19    21    1
   21    19    22    1
   22    17    23    1
   23    23    24    1
   24    23    25    1
   25    23    26    1
@<TRIPOS>SUBSTRUCTURE
       1 MOL1            1 RESIDUE      1      MOL     
@<SCITEGIC>MOL_PROPERTY
VM2 Rank
SciTegic.value.IntegerValue
70

@<SCITEGIC>MOL_PROPERTY
Conf_Id
SciTegic.value.IntegerValue
247

@<SCITEGIC>MOL_PROPERTY
Probability
SciTegic.value.DoubleValue
0.01

@<SCITEGIC>MOL_PROPERTY
Sum Probability
SciTegic.value.DoubleValue
99.94

@<SCITEGIC>MOL_PROPERTY
Delta G
SciTegic.value.DoubleValue
4.506

@<SCITEGIC>MOL_PROPERTY
G
SciTegic.value.DoubleValue
28.218

@<SCITEGIC>MOL_PROPERTY
E
SciTegic.value.DoubleValue
-5.378

@<SCITEGIC>MOL_PROPERTY
-TS
SciTegic.value.DoubleValue
33.596

@<SCITEGIC>MOL_PROPERTY
U+W
SciTegic.value.DoubleValue
-26.840

@<SCITEGIC>MOL_PROPERTY
U
SciTegic.value.DoubleValue
27.574

@<SCITEGIC>MOL_PROPERTY
W
SciTegic.value.DoubleValue
-54.414

@<SCITEGIC>MOL_PROPERTY
W(PB)
SciTegic.value.DoubleValue
-56.626

@<SCITEGIC>MOL_PROPERTY
W(SA)
SciTegic.value.DoubleValue
2.212

@<SCITEGIC>MOL_PROPERTY
Valence
SciTegic.value.DoubleValue
6.650

@<SCITEGIC>MOL_PROPERTY
Coulomb
SciTegic.value.DoubleValue
20.286

@<SCITEGIC>MOL_PROPERTY
VdW
SciTegic.value.DoubleValue
0.638

@<SCITEGIC>MOL_PROPERTY
VdW6
SciTegic.value.DoubleValue
-9.864

@<SCITEGIC>MOL_PROPERTY
VdW12
SciTegic.value.DoubleValue
10.502

@<SCITEGIC>MOL_PROPERTY
Bond
SciTegic.value.DoubleValue
0.322

@<SCITEGIC>MOL_PROPERTY
Angle
SciTegic.value.DoubleValue
2.715

@<SCITEGIC>MOL_PROPERTY
Pdih
SciTegic.value.DoubleValue
3.613

@<SCITEGIC>MOL_PROPERTY
Idih
SciTegic.value.DoubleValue
0.000

@<SCITEGIC>MOL_PROPERTY
Tether
SciTegic.value.DoubleValue
0.000

@<TRIPOS>MOLECULE
guest-s13_vm2.mol2 : vm2 ligand conformer 71
          26          25           1
SMALL
USER_CHARGES
 
@<TRIPOS>ATOM
       1    C1      20.705270   20.305615   20.824695 C.3        1 MOL1        -0.2398
       2    H1      21.707214   20.724883   20.666067 H          1 MOL1         0.0972
       3    H2      20.103563   20.529506   19.934324 H          1 MOL1         0.0972
       4    H3      20.258671   20.829264   21.677804 H          1 MOL1         0.0972
       5    C2      20.788392   18.781199   21.066075 C.3        1 MOL1        -0.1383
       6    H4      21.406583   18.567308   21.947015 H          1 MOL1         0.0961
       7    H5      21.316063   18.322389   20.218269 H          1 MOL1         0.0961
       8    C3      19.402884   18.102963   21.202937 C.3        1 MOL1        -0.1407
       9    H6      18.854345   18.237619   20.260484 H          1 MOL1         0.0961
      10    H7      19.550487   17.019188   21.306911 H          1 MOL1         0.0961
      11    C4      18.506346   18.601714   22.368632 C.3        1 MOL1        -0.1407
      12    H8      17.550152   18.065931   22.292570 H          1 MOL1         0.0961
      13    H9      18.252202   19.659326   22.231157 H          1 MOL1         0.0961
      14    C5      19.080242   18.338888   23.788240 C.3        1 MOL1        -0.1472
      15    H10     18.246527   18.246247   24.496915 H          1 MOL1         0.0961
      16    H11     19.580032   17.361356   23.788972 H          1 MOL1         0.0961
      17    C6      20.053738   19.418721   24.318033 C.3        1 MOL1         0.1190
      18    H12     20.789877   19.641821   23.542612 H          1 MOL1         0.0923
      19    C7      19.320906   20.723026   24.681960 C.3        1 MOL1        -0.2463
      20    H13     18.825151   21.164251   23.810299 H          1 MOL1         0.0972
      21    H14     20.028392   21.468246   25.065873 H          1 MOL1         0.0972
      22    H15     18.560868   20.548533   25.453678 H          1 MOL1         0.0972
      23    N1      20.830223   18.915874   25.503428 N.4        1 MOL1        -0.5974
      24    H16     20.211368   18.686556   26.285713 H          1 MOL1         0.3625
      25    H17     21.362991   18.071682   25.275389 H          1 MOL1         0.3625
      26    H18     21.497947   19.616267   25.838124 H          1 MOL1         0.3625
@<TRIPOS>BOND
    1     1     2    1
    2     1     3    1
    3     1     4    1
    4     1     5    1
    5     5     6    1
    6     5     7    1
    7     5     8    1
    8     8     9    1
    9     8    10    1
   10     8    11    1
   11    11    12    1
   12    11    13    1
   13    11    14    1
   14    14    15    1
   15    14    16    1
   16    14    17    1
   17    17    18    1
   18    17    19    1
   19    19    20    1
   20    19    21    1
   21    19    22    1
   22    17    23    1
   23    23    24    1
   24    23    25    1
   25    23    26    1
@<TRIPOS>SUBSTRUCTURE
       1 MOL1            1 RESIDUE      1      MOL     
@<SCITEGIC>MOL_PROPERTY
VM2 Rank
SciTegic.value.IntegerValue
71

@<SCITEGIC>MOL_PROPERTY
Conf_Id
SciTegic.value.IntegerValue
1003

@<SCITEGIC>MOL_PROPERTY
Probability
SciTegic.value.DoubleValue
0.01

@<SCITEGIC>MOL_PROPERTY
Sum Probability
SciTegic.value.DoubleValue
99.95

@<SCITEGIC>MOL_PROPERTY
Delta G
SciTegic.value.DoubleValue
4.520

@<SCITEGIC>MOL_PROPERTY
G
SciTegic.value.DoubleValue
28.232

@<SCITEGIC>MOL_PROPERTY
E
SciTegic.value.DoubleValue
-5.460

@<SCITEGIC>MOL_PROPERTY
-TS
SciTegic.value.DoubleValue
33.692

@<SCITEGIC>MOL_PROPERTY
U+W
SciTegic.value.DoubleValue
-26.922

@<SCITEGIC>MOL_PROPERTY
U
SciTegic.value.DoubleValue
27.547

@<SCITEGIC>MOL_PROPERTY
W
SciTegic.value.DoubleValue
-54.469

@<SCITEGIC>MOL_PROPERTY
W(PB)
SciTegic.value.DoubleValue
-56.656

@<SCITEGIC>MOL_PROPERTY
W(SA)
SciTegic.value.DoubleValue
2.186

@<SCITEGIC>MOL_PROPERTY
Valence
SciTegic.value.DoubleValue
6.487

@<SCITEGIC>MOL_PROPERTY
Coulomb
SciTegic.value.DoubleValue
20.539

@<SCITEGIC>MOL_PROPERTY
VdW
SciTegic.value.DoubleValue
0.521

@<SCITEGIC>MOL_PROPERTY
VdW6
SciTegic.value.DoubleValue
-10.155

@<SCITEGIC>MOL_PROPERTY
VdW12
SciTegic.value.DoubleValue
10.675

@<SCITEGIC>MOL_PROPERTY
Bond
SciTegic.value.DoubleValue
0.309

@<SCITEGIC>MOL_PROPERTY
Angle
SciTegic.value.DoubleValue
2.564

@<SCITEGIC>MOL_PROPERTY
Pdih
SciTegic.value.DoubleValue
3.615

@<SCITEGIC>MOL_PROPERTY
Idih
SciTegic.value.DoubleValue
0.000

@<SCITEGIC>MOL_PROPERTY
Tether
SciTegic.value.DoubleValue
0.000

@<TRIPOS>MOLECULE
guest-s13_vm2.mol2 : vm2 ligand conformer 72
          26          25           1
SMALL
USER_CHARGES
 
@<TRIPOS>ATOM
       1    C1      20.732597   18.411975   19.875567 C.3        1 MOL1        -0.2398
       2    H1      20.825162   19.278866   19.208575 H          1 MOL1         0.0972
       3    H2      21.602798   18.395703   20.543589 H          1 MOL1         0.0972
       4    H3      20.774676   17.505999   19.257281 H          1 MOL1         0.0972
       5    C2      19.409428   18.462389   20.672285 C.3        1 MOL1        -0.1383
       6    H4      19.352995   17.600888   21.350100 H          1 MOL1         0.0961
       7    H5      18.571742   18.342809   19.971084 H          1 MOL1         0.0961
       8    C3      19.205485   19.784423   21.457243 C.3        1 MOL1        -0.1407
       9    H6      19.108508   20.604643   20.732715 H          1 MOL1         0.0961
      10    H7      18.240502   19.737265   21.974466 H          1 MOL1         0.0961
      11    C4      20.335076   20.155161   22.459625 C.3        1 MOL1        -0.1407
      12    H8      20.123782   21.140962   22.896252 H          1 MOL1         0.0961
      13    H9      21.267354   20.289667   21.895511 H          1 MOL1         0.0961
      14    C5      20.591130   19.131723   23.601476 C.3        1 MOL1        -0.1472
      15    H10     20.392408   18.107832   23.265828 H          1 MOL1         0.0961
      16    H11     21.664416   19.159729   23.831184 H          1 MOL1         0.0961
      17    C6      19.834128   19.413809   24.921820 C.3        1 MOL1         0.1190
      18    H12     20.106349   20.417244   25.263313 H          1 MOL1         0.0923
      19    C7      18.305876   19.360987   24.761445 C.3        1 MOL1        -0.2463
      20    H13     17.986407   18.423040   24.290465 H          1 MOL1         0.0972
      21    H14     17.947461   20.199363   24.154044 H          1 MOL1         0.0972
      22    H15     17.810681   19.438996   25.737134 H          1 MOL1         0.0972
      23    N1      20.274281   18.467533   26.004540 N.4        1 MOL1        -0.5974
      24    H16     21.284523   18.519441   26.163561 H          1 MOL1         0.3625
      25    H17     19.815222   18.678696   26.895077 H          1 MOL1         0.3625
      26    H18     20.049418   17.497584   25.767785 H          1 MOL1         0.3625
@<TRIPOS>BOND
    1     1     2    1
    2     1     3    1
    3     1     4    1
    4     1     5    1
    5     5     6    1
    6     5     7    1
    7     5     8    1
    8     8     9    1
    9     8    10    1
   10     8    11    1
   11    11    12    1
   12    11    13    1
   13    11    14    1
   14    14    15    1
   15    14    16    1
   16    14    17    1
   17    17    18    1
   18    17    19    1
   19    19    20    1
   20    19    21    1
   21    19    22    1
   22    17    23    1
   23    23    24    1
   24    23    25    1
   25    23    26    1
@<TRIPOS>SUBSTRUCTURE
       1 MOL1            1 RESIDUE      1      MOL     
@<SCITEGIC>MOL_PROPERTY
VM2 Rank
SciTegic.value.IntegerValue
72

@<SCITEGIC>MOL_PROPERTY
Conf_Id
SciTegic.value.IntegerValue
136

@<SCITEGIC>MOL_PROPERTY
Probability
SciTegic.value.DoubleValue
0.01

@<SCITEGIC>MOL_PROPERTY
Sum Probability
SciTegic.value.DoubleValue
99.96

@<SCITEGIC>MOL_PROPERTY
Delta G
SciTegic.value.DoubleValue
4.614

@<SCITEGIC>MOL_PROPERTY
G
SciTegic.value.DoubleValue
28.327

@<SCITEGIC>MOL_PROPERTY
E
SciTegic.value.DoubleValue
-4.564

@<SCITEGIC>MOL_PROPERTY
-TS
SciTegic.value.DoubleValue
32.890

@<SCITEGIC>MOL_PROPERTY
U+W
SciTegic.value.DoubleValue
-26.026

@<SCITEGIC>MOL_PROPERTY
U
SciTegic.value.DoubleValue
28.262

@<SCITEGIC>MOL_PROPERTY
W
SciTegic.value.DoubleValue
-54.288

@<SCITEGIC>MOL_PROPERTY
W(PB)
SciTegic.value.DoubleValue
-56.488

@<SCITEGIC>MOL_PROPERTY
W(SA)
SciTegic.value.DoubleValue
2.200

@<SCITEGIC>MOL_PROPERTY
Valence
SciTegic.value.DoubleValue
7.096

@<SCITEGIC>MOL_PROPERTY
Coulomb
SciTegic.value.DoubleValue
19.990

@<SCITEGIC>MOL_PROPERTY
VdW
SciTegic.value.DoubleValue
1.176

@<SCITEGIC>MOL_PROPERTY
VdW6
SciTegic.value.DoubleValue
-9.405

@<SCITEGIC>MOL_PROPERTY
VdW12
SciTegic.value.DoubleValue
10.580

@<SCITEGIC>MOL_PROPERTY
Bond
SciTegic.value.DoubleValue
0.360

@<SCITEGIC>MOL_PROPERTY
Angle
SciTegic.value.DoubleValue
2.785

@<SCITEGIC>MOL_PROPERTY
Pdih
SciTegic.value.DoubleValue
3.951

@<SCITEGIC>MOL_PROPERTY
Idih
SciTegic.value.DoubleValue
0.000

@<SCITEGIC>MOL_PROPERTY
Tether
SciTegic.value.DoubleValue
0.000

@<TRIPOS>MOLECULE
guest-s13_vm2.mol2 : vm2 ligand conformer 73
          26          25           1
SMALL
USER_CHARGES
 
@<TRIPOS>ATOM
       1    C1      19.758003   18.234724   19.879101 C.3        1 MOL1        -0.2398
       2    H1      20.536939   18.606931   19.201118 H          1 MOL1         0.0972
       3    H2      20.176713   17.405298   20.462508 H          1 MOL1         0.0972
       4    H3      18.943962   17.828606   19.264898 H          1 MOL1         0.0972
       5    C2      19.233484   19.362806   20.795701 C.3        1 MOL1        -0.1383
       6    H4      18.471572   18.958104   21.474059 H          1 MOL1         0.0961
       7    H5      18.719309   20.110749   20.176183 H          1 MOL1         0.0961
       8    C3      20.353713   20.073121   21.598637 C.3        1 MOL1        -0.1407
       9    H6      21.054918   20.531719   20.887899 H          1 MOL1         0.0961
      10    H7      19.925436   20.910809   22.163367 H          1 MOL1         0.0961
      11    C4      21.158215   19.157779   22.558102 C.3        1 MOL1        -0.1407
      12    H8      21.941677   19.758202   23.040701 H          1 MOL1         0.0961
      13    H9      21.694534   18.404052   21.966638 H          1 MOL1         0.0961
      14    C5      20.336411   18.435036   23.658930 C.3        1 MOL1        -0.1472
      15    H10     19.555285   17.804671   23.215578 H          1 MOL1         0.0961
      16    H11     21.022198   17.736895   24.156806 H          1 MOL1         0.0961
      17    C6      19.737768   19.382339   24.728280 C.3        1 MOL1         0.1190
      18    H12     20.335209   20.298975   24.747372 H          1 MOL1         0.0923
      19    C7      18.273713   19.751382   24.427242 C.3        1 MOL1        -0.2463
      20    H13     18.175832   20.273401   23.470610 H          1 MOL1         0.0972
      21    H14     17.877506   20.418278   25.202836 H          1 MOL1         0.0972
      22    H15     17.638696   18.857350   24.393698 H          1 MOL1         0.0972
      23    N1      19.836693   18.790812   26.108007 N.4        1 MOL1        -0.5974
      24    H16     20.806947   18.580631   26.359310 H          1 MOL1         0.3625
      25    H17     19.471425   19.432826   26.817125 H          1 MOL1         0.3625
      26    H18     19.303716   17.920059   26.181009 H          1 MOL1         0.3625
@<TRIPOS>BOND
    1     1     2    1
    2     1     3    1
    3     1     4    1
    4     1     5    1
    5     5     6    1
    6     5     7    1
    7     5     8    1
    8     8     9    1
    9     8    10    1
   10     8    11    1
   11    11    12    1
   12    11    13    1
   13    11    14    1
   14    14    15    1
   15    14    16    1
   16    14    17    1
   17    17    18    1
   18    17    19    1
   19    19    20    1
   20    19    21    1
   21    19    22    1
   22    17    23    1
   23    23    24    1
   24    23    25    1
   25    23    26    1
@<TRIPOS>SUBSTRUCTURE
       1 MOL1            1 RESIDUE      1      MOL     
@<SCITEGIC>MOL_PROPERTY
VM2 Rank
SciTegic.value.IntegerValue
73

@<SCITEGIC>MOL_PROPERTY
Conf_Id
SciTegic.value.IntegerValue
159

@<SCITEGIC>MOL_PROPERTY
Probability
SciTegic.value.DoubleValue
0.01

@<SCITEGIC>MOL_PROPERTY
Sum Probability
SciTegic.value.DoubleValue
99.96

@<SCITEGIC>MOL_PROPERTY
Delta G
SciTegic.value.DoubleValue
4.617

@<SCITEGIC>MOL_PROPERTY
G
SciTegic.value.DoubleValue
28.329

@<SCITEGIC>MOL_PROPERTY
E
SciTegic.value.DoubleValue
-5.038

@<SCITEGIC>MOL_PROPERTY
-TS
SciTegic.value.DoubleValue
33.367

@<SCITEGIC>MOL_PROPERTY
U+W
SciTegic.value.DoubleValue
-26.500

@<SCITEGIC>MOL_PROPERTY
U
SciTegic.value.DoubleValue
27.871

@<SCITEGIC>MOL_PROPERTY
W
SciTegic.value.DoubleValue
-54.371

@<SCITEGIC>MOL_PROPERTY
W(PB)
SciTegic.value.DoubleValue
-56.584

@<SCITEGIC>MOL_PROPERTY
W(SA)
SciTegic.value.DoubleValue
2.213

@<SCITEGIC>MOL_PROPERTY
Valence
SciTegic.value.DoubleValue
6.984

@<SCITEGIC>MOL_PROPERTY
Coulomb
SciTegic.value.DoubleValue
20.043

@<SCITEGIC>MOL_PROPERTY
VdW
SciTegic.value.DoubleValue
0.845

@<SCITEGIC>MOL_PROPERTY
VdW6
SciTegic.value.DoubleValue
-9.755

@<SCITEGIC>MOL_PROPERTY
VdW12
SciTegic.value.DoubleValue
10.600

@<SCITEGIC>MOL_PROPERTY
Bond
SciTegic.value.DoubleValue
0.302

@<SCITEGIC>MOL_PROPERTY
Angle
SciTegic.value.DoubleValue
2.443

@<SCITEGIC>MOL_PROPERTY
Pdih
SciTegic.value.DoubleValue
4.239

@<SCITEGIC>MOL_PROPERTY
Idih
SciTegic.value.DoubleValue
0.000

@<SCITEGIC>MOL_PROPERTY
Tether
SciTegic.value.DoubleValue
0.000

@<TRIPOS>MOLECULE
guest-s13_vm2.mol2 : vm2 ligand conformer 74
          26          25           1
SMALL
USER_CHARGES
 
@<TRIPOS>ATOM
       1    C1      20.818538   17.992505   20.080594 C.3        1 MOL1        -0.2398
       2    H1      20.943940   17.781972   19.010607 H          1 MOL1         0.0972
       3    H2      21.756520   18.431771   20.442387 H          1 MOL1         0.0972
       4    H3      20.665330   17.035015   20.595013 H          1 MOL1         0.0972
       5    C2      19.621848   18.943896   20.307707 C.3        1 MOL1        -0.1383
       6    H4      18.730180   18.512847   19.831352 H          1 MOL1         0.0961
       7    H5      19.808859   19.900543   19.800146 H          1 MOL1         0.0961
       8    C3      19.314743   19.195333   21.803496 C.3        1 MOL1        -0.1407
       9    H6      18.399764   19.799208   21.876134 H          1 MOL1         0.0961
      10    H7      19.100186   18.232947   22.283482 H          1 MOL1         0.0961
      11    C4      20.463127   19.917878   22.549606 C.3        1 MOL1        -0.1407
      12    H8      20.790138   20.772450   21.941395 H          1 MOL1         0.0961
      13    H9      21.335869   19.256639   22.624923 H          1 MOL1         0.0961
      14    C5      20.090084   20.457258   23.959831 C.3        1 MOL1        -0.1472
      15    H10     20.965639   20.996704   24.344109 H          1 MOL1         0.0961
      16    H11     19.302581   21.216805   23.867612 H          1 MOL1         0.0961
      17    C6      19.684711   19.417519   25.036900 C.3        1 MOL1         0.1190
      18    H12     19.890218   19.878068   26.008217 H          1 MOL1         0.0923
      19    C7      18.178233   19.098642   25.019760 C.3        1 MOL1        -0.2463
      20    H13     17.872193   18.568510   24.113207 H          1 MOL1         0.0972
      21    H14     17.585185   20.018591   25.092911 H          1 MOL1         0.0972
      22    H15     17.912903   18.468697   25.877606 H          1 MOL1         0.0972
      23    N1      20.516718   18.164970   24.996106 N.4        1 MOL1        -0.5974
      24    H16     20.261259   17.520035   25.749259 H          1 MOL1         0.3625
      25    H17     20.394687   17.671060   24.108656 H          1 MOL1         0.3625
      26    H18     21.513557   18.375732   25.097685 H          1 MOL1         0.3625
@<TRIPOS>BOND
    1     1     2    1
    2     1     3    1
    3     1     4    1
    4     1     5    1
    5     5     6    1
    6     5     7    1
    7     5     8    1
    8     8     9    1
    9     8    10    1
   10     8    11    1
   11    11    12    1
   12    11    13    1
   13    11    14    1
   14    14    15    1
   15    14    16    1
   16    14    17    1
   17    17    18    1
   18    17    19    1
   19    19    20    1
   20    19    21    1
   21    19    22    1
   22    17    23    1
   23    23    24    1
   24    23    25    1
   25    23    26    1
@<TRIPOS>SUBSTRUCTURE
       1 MOL1            1 RESIDUE      1      MOL     
@<SCITEGIC>MOL_PROPERTY
VM2 Rank
SciTegic.value.IntegerValue
74

@<SCITEGIC>MOL_PROPERTY
Conf_Id
SciTegic.value.IntegerValue
559

@<SCITEGIC>MOL_PROPERTY
Probability
SciTegic.value.DoubleValue
0.01

@<SCITEGIC>MOL_PROPERTY
Sum Probability
SciTegic.value.DoubleValue
99.97

@<SCITEGIC>MOL_PROPERTY
Delta G
SciTegic.value.DoubleValue
4.720

@<SCITEGIC>MOL_PROPERTY
G
SciTegic.value.DoubleValue
28.432

@<SCITEGIC>MOL_PROPERTY
E
SciTegic.value.DoubleValue
-4.752

@<SCITEGIC>MOL_PROPERTY
-TS
SciTegic.value.DoubleValue
33.184

@<SCITEGIC>MOL_PROPERTY
U+W
SciTegic.value.DoubleValue
-26.213

@<SCITEGIC>MOL_PROPERTY
U
SciTegic.value.DoubleValue
27.935

@<SCITEGIC>MOL_PROPERTY
W
SciTegic.value.DoubleValue
-54.148

@<SCITEGIC>MOL_PROPERTY
W(PB)
SciTegic.value.DoubleValue
-56.370

@<SCITEGIC>MOL_PROPERTY
W(SA)
SciTegic.value.DoubleValue
2.221

@<SCITEGIC>MOL_PROPERTY
Valence
SciTegic.value.DoubleValue
6.278

@<SCITEGIC>MOL_PROPERTY
Coulomb
SciTegic.value.DoubleValue
20.605

@<SCITEGIC>MOL_PROPERTY
VdW
SciTegic.value.DoubleValue
1.052

@<SCITEGIC>MOL_PROPERTY
VdW6
SciTegic.value.DoubleValue
-9.400

@<SCITEGIC>MOL_PROPERTY
VdW12
SciTegic.value.DoubleValue
10.452

@<SCITEGIC>MOL_PROPERTY
Bond
SciTegic.value.DoubleValue
0.315

@<SCITEGIC>MOL_PROPERTY
Angle
SciTegic.value.DoubleValue
2.523

@<SCITEGIC>MOL_PROPERTY
Pdih
SciTegic.value.DoubleValue
3.440

@<SCITEGIC>MOL_PROPERTY
Idih
SciTegic.value.DoubleValue
0.000

@<SCITEGIC>MOL_PROPERTY
Tether
SciTegic.value.DoubleValue
0.000

@<TRIPOS>MOLECULE
guest-s13_vm2.mol2 : vm2 ligand conformer 75
          26          25           1
SMALL
USER_CHARGES
 
@<TRIPOS>ATOM
       1    C1      19.651421   18.268086   19.964481 C.3        1 MOL1        -0.2398
       2    H1      19.514921   17.269022   19.530804 H          1 MOL1         0.0972
       3    H2      18.664761   18.629147   20.280428 H          1 MOL1         0.0972
       4    H3      20.022428   18.930625   19.171804 H          1 MOL1         0.0972
       5    C2      20.640327   18.213247   21.150525 C.3        1 MOL1        -0.1383
       6    H4      21.574879   17.746531   20.809083 H          1 MOL1         0.0961
       7    H5      20.240027   17.552310   21.929618 H          1 MOL1         0.0961
       8    C3      20.970113   19.610228   21.736204 C.3        1 MOL1        -0.1407
       9    H6      21.735536   19.512675   22.515304 H          1 MOL1         0.0961
      10    H7      21.442538   20.213936   20.948948 H          1 MOL1         0.0961
      11    C4      19.753932   20.400822   22.289042 C.3        1 MOL1        -0.1407
      12    H8      19.100354   20.671018   21.448860 H          1 MOL1         0.0961
      13    H9      20.112299   21.356619   22.695524 H          1 MOL1         0.0961
      14    C5      18.893349   19.689501   23.369434 C.3        1 MOL1        -0.1472
      15    H10     18.018392   20.328057   23.549969 H          1 MOL1         0.0961
      16    H11     18.491102   18.743023   22.987057 H          1 MOL1         0.0961
      17    C6      19.612142   19.459767   24.720030 C.3        1 MOL1         0.1190
      18    H12     20.188486   20.358800   24.958964 H          1 MOL1         0.0923
      19    C7      18.584716   19.234834   25.841723 C.3        1 MOL1        -0.2463
      20    H13     17.919067   20.101204   25.941901 H          1 MOL1         0.0972
      21    H14     19.087365   19.090884   26.806125 H          1 MOL1         0.0972
      22    H15     17.966949   18.350196   25.642398 H          1 MOL1         0.0972
      23    N1      20.582000   18.311513   24.682561 N.4        1 MOL1        -0.5974
      24    H16     21.095777   18.226849   25.564311 H          1 MOL1         0.3625
      25    H17     20.099145   17.423668   24.522933 H          1 MOL1         0.3625
      26    H18     21.267550   18.430028   23.933100 H          1 MOL1         0.3625
@<TRIPOS>BOND
    1     1     2    1
    2     1     3    1
    3     1     4    1
    4     1     5    1
    5     5     6    1
    6     5     7    1
    7     5     8    1
    8     8     9    1
    9     8    10    1
   10     8    11    1
   11    11    12    1
   12    11    13    1
   13    11    14    1
   14    14    15    1
   15    14    16    1
   16    14    17    1
   17    17    18    1
   18    17    19    1
   19    19    20    1
   20    19    21    1
   21    19    22    1
   22    17    23    1
   23    23    24    1
   24    23    25    1
   25    23    26    1
@<TRIPOS>SUBSTRUCTURE
       1 MOL1            1 RESIDUE      1      MOL     
@<SCITEGIC>MOL_PROPERTY
VM2 Rank
SciTegic.value.IntegerValue
75

@<SCITEGIC>MOL_PROPERTY
Conf_Id
SciTegic.value.IntegerValue
433

@<SCITEGIC>MOL_PROPERTY
Probability
SciTegic.value.DoubleValue
0.01

@<SCITEGIC>MOL_PROPERTY
Sum Probability
SciTegic.value.DoubleValue
99.98

@<SCITEGIC>MOL_PROPERTY
Delta G
SciTegic.value.DoubleValue
4.738

@<SCITEGIC>MOL_PROPERTY
G
SciTegic.value.DoubleValue
28.450

@<SCITEGIC>MOL_PROPERTY
E
SciTegic.value.DoubleValue
-4.948

@<SCITEGIC>MOL_PROPERTY
-TS
SciTegic.value.DoubleValue
33.398

@<SCITEGIC>MOL_PROPERTY
U+W
SciTegic.value.DoubleValue
-26.409

@<SCITEGIC>MOL_PROPERTY
U
SciTegic.value.DoubleValue
27.565

@<SCITEGIC>MOL_PROPERTY
W
SciTegic.value.DoubleValue
-53.974

@<SCITEGIC>MOL_PROPERTY
W(PB)
SciTegic.value.DoubleValue
-56.203

@<SCITEGIC>MOL_PROPERTY
W(SA)
SciTegic.value.DoubleValue
2.228

@<SCITEGIC>MOL_PROPERTY
Valence
SciTegic.value.DoubleValue
5.430

@<SCITEGIC>MOL_PROPERTY
Coulomb
SciTegic.value.DoubleValue
21.473

@<SCITEGIC>MOL_PROPERTY
VdW
SciTegic.value.DoubleValue
0.662

@<SCITEGIC>MOL_PROPERTY
VdW6
SciTegic.value.DoubleValue
-9.933

@<SCITEGIC>MOL_PROPERTY
VdW12
SciTegic.value.DoubleValue
10.596

@<SCITEGIC>MOL_PROPERTY
Bond
SciTegic.value.DoubleValue
0.322

@<SCITEGIC>MOL_PROPERTY
Angle
SciTegic.value.DoubleValue
2.461

@<SCITEGIC>MOL_PROPERTY
Pdih
SciTegic.value.DoubleValue
2.647

@<SCITEGIC>MOL_PROPERTY
Idih
SciTegic.value.DoubleValue
0.000

@<SCITEGIC>MOL_PROPERTY
Tether
SciTegic.value.DoubleValue
0.000

@<TRIPOS>MOLECULE
guest-s13_vm2.mol2 : vm2 ligand conformer 76
          26          25           1
SMALL
USER_CHARGES
 
@<TRIPOS>ATOM
       1    C1      20.956141   17.782540   20.083466 C.3        1 MOL1        -0.2398
       2    H1      21.836461   17.521174   20.684896 H          1 MOL1         0.0972
       3    H2      20.561343   16.857006   19.644587 H          1 MOL1         0.0972
       4    H3      21.284831   18.430998   19.260816 H          1 MOL1         0.0972
       5    C2      19.880643   18.479386   20.943225 C.3        1 MOL1        -0.1383
       6    H4      19.544187   17.786223   21.724293 H          1 MOL1         0.0961
       7    H5      19.002593   18.698877   20.319770 H          1 MOL1         0.0961
       8    C3      20.412686   19.791535   21.567036 C.3        1 MOL1        -0.1407
       9    H6      21.308330   19.596899   22.169182 H          1 MOL1         0.0961
      10    H7      20.746832   20.453145   20.755718 H          1 MOL1         0.0961
      11    C4      19.356821   20.555934   22.405888 C.3        1 MOL1        -0.1407
      12    H8      18.540435   20.864907   21.738533 H          1 MOL1         0.0961
      13    H9      19.808887   21.488304   22.771560 H          1 MOL1         0.0961
      14    C5      18.740630   19.794912   23.612385 C.3        1 MOL1        -0.1472
      15    H10     17.982130   20.456467   24.051744 H          1 MOL1         0.0961
      16    H11     18.192436   18.906679   23.274038 H          1 MOL1         0.0961
      17    C6      19.752573   19.408496   24.717203 C.3        1 MOL1         0.1190
      18    H12     20.457409   20.236306   24.841666 H          1 MOL1         0.0923
      19    C7      19.028583   19.187148   26.055565 C.3        1 MOL1        -0.2463
      20    H13     18.501586   20.096582   26.370120 H          1 MOL1         0.0972
      21    H14     19.743819   18.929308   26.846399 H          1 MOL1         0.0972
      22    H15     18.294424   18.375194   25.980068 H          1 MOL1         0.0972
      23    N1      20.559923   18.188049   24.369233 N.4        1 MOL1        -0.5974
      24    H16     19.967342   17.355656   24.313314 H          1 MOL1         0.3625
      25    H17     21.025044   18.296942   23.464371 H          1 MOL1         0.3625
      26    H18     21.281465   18.003420   25.072133 H          1 MOL1         0.3625
@<TRIPOS>BOND
    1     1     2    1
    2     1     3    1
    3     1     4    1
    4     1     5    1
    5     5     6    1
    6     5     7    1
    7     5     8    1
    8     8     9    1
    9     8    10    1
   10     8    11    1
   11    11    12    1
   12    11    13    1
   13    11    14    1
   14    14    15    1
   15    14    16    1
   16    14    17    1
   17    17    18    1
   18    17    19    1
   19    19    20    1
   20    19    21    1
   21    19    22    1
   22    17    23    1
   23    23    24    1
   24    23    25    1
   25    23    26    1
@<TRIPOS>SUBSTRUCTURE
       1 MOL1            1 RESIDUE      1      MOL     
@<SCITEGIC>MOL_PROPERTY
VM2 Rank
SciTegic.value.IntegerValue
76

@<SCITEGIC>MOL_PROPERTY
Conf_Id
SciTegic.value.IntegerValue
831

@<SCITEGIC>MOL_PROPERTY
Probability
SciTegic.value.DoubleValue
0.01

@<SCITEGIC>MOL_PROPERTY
Sum Probability
SciTegic.value.DoubleValue
99.98

@<SCITEGIC>MOL_PROPERTY
Delta G
SciTegic.value.DoubleValue
4.840

@<SCITEGIC>MOL_PROPERTY
G
SciTegic.value.DoubleValue
28.552

@<SCITEGIC>MOL_PROPERTY
E
SciTegic.value.DoubleValue
-4.671

@<SCITEGIC>MOL_PROPERTY
-TS
SciTegic.value.DoubleValue
33.223

@<SCITEGIC>MOL_PROPERTY
U+W
SciTegic.value.DoubleValue
-26.132

@<SCITEGIC>MOL_PROPERTY
U
SciTegic.value.DoubleValue
27.025

@<SCITEGIC>MOL_PROPERTY
W
SciTegic.value.DoubleValue
-53.157

@<SCITEGIC>MOL_PROPERTY
W(PB)
SciTegic.value.DoubleValue
-55.402

@<SCITEGIC>MOL_PROPERTY
W(SA)
SciTegic.value.DoubleValue
2.245

@<SCITEGIC>MOL_PROPERTY
Valence
SciTegic.value.DoubleValue
5.027

@<SCITEGIC>MOL_PROPERTY
Coulomb
SciTegic.value.DoubleValue
21.327

@<SCITEGIC>MOL_PROPERTY
VdW
SciTegic.value.DoubleValue
0.671

@<SCITEGIC>MOL_PROPERTY
VdW6
SciTegic.value.DoubleValue
-9.248

@<SCITEGIC>MOL_PROPERTY
VdW12
SciTegic.value.DoubleValue
9.918

@<SCITEGIC>MOL_PROPERTY
Bond
SciTegic.value.DoubleValue
0.272

@<SCITEGIC>MOL_PROPERTY
Angle
SciTegic.value.DoubleValue
2.162

@<SCITEGIC>MOL_PROPERTY
Pdih
SciTegic.value.DoubleValue
2.594

@<SCITEGIC>MOL_PROPERTY
Idih
SciTegic.value.DoubleValue
0.000

@<SCITEGIC>MOL_PROPERTY
Tether
SciTegic.value.DoubleValue
0.000

@<TRIPOS>MOLECULE
guest-s13_vm2.mol2 : vm2 ligand conformer 77
          26          25           1
SMALL
USER_CHARGES
 
@<TRIPOS>ATOM
       1    C1      20.661653   17.745128   20.099859 C.3        1 MOL1        -0.2398
       2    H1      19.935714   17.843875   19.282226 H          1 MOL1         0.0972
       3    H2      21.657716   17.630327   19.652928 H          1 MOL1         0.0972
       4    H3      20.431862   16.824218   20.651293 H          1 MOL1         0.0972
       5    C2      20.620694   18.976152   21.029582 C.3        1 MOL1        -0.1383
       6    H4      20.885759   19.874814   20.455189 H          1 MOL1         0.0961
       7    H5      21.387995   18.863320   21.805497 H          1 MOL1         0.0961
       8    C3      19.223029   19.162808   21.666055 C.3        1 MOL1        -0.1407
       9    H6      18.483424   19.266990   20.860068 H          1 MOL1         0.0961
      10    H7      18.928858   18.261748   22.217036 H          1 MOL1         0.0961
      11    C4      19.118287   20.410180   22.580209 C.3        1 MOL1        -0.1407
      12    H8      18.080141   20.511436   22.923701 H          1 MOL1         0.0961
      13    H9      19.307157   21.303181   21.968657 H          1 MOL1         0.0961
      14    C5      20.074594   20.451950   23.808447 C.3        1 MOL1        -0.1472
      15    H10     21.116169   20.507464   23.468193 H          1 MOL1         0.0961
      16    H11     19.896381   21.400283   24.332244 H          1 MOL1         0.0961
      17    C6      19.940390   19.314571   24.853630 C.3        1 MOL1         0.1190
      18    H12     20.516097   19.622066   25.732119 H          1 MOL1         0.0923
      19    C7      18.486202   19.105719   25.311178 C.3        1 MOL1        -0.2463
      20    H13     18.045630   20.051766   25.649425 H          1 MOL1         0.0972
      21    H14     18.445233   18.400902   26.150593 H          1 MOL1         0.0972
      22    H15     17.861180   18.703569   24.505034 H          1 MOL1         0.0972
      23    N1      20.563151   18.021492   24.405039 N.4        1 MOL1        -0.5974
      24    H16     21.562851   18.134664   24.215408 H          1 MOL1         0.3625
      25    H17     20.468269   17.293511   25.118938 H          1 MOL1         0.3625
      26    H18     20.123825   17.678179   23.547919 H          1 MOL1         0.3625
@<TRIPOS>BOND
    1     1     2    1
    2     1     3    1
    3     1     4    1
    4     1     5    1
    5     5     6    1
    6     5     7    1
    7     5     8    1
    8     8     9    1
    9     8    10    1
   10     8    11    1
   11    11    12    1
   12    11    13    1
   13    11    14    1
   14    14    15    1
   15    14    16    1
   16    14    17    1
   17    17    18    1
   18    17    19    1
   19    19    20    1
   20    19    21    1
   21    19    22    1
   22    17    23    1
   23    23    24    1
   24    23    25    1
   25    23    26    1
@<TRIPOS>SUBSTRUCTURE
       1 MOL1            1 RESIDUE      1      MOL     
@<SCITEGIC>MOL_PROPERTY
VM2 Rank
SciTegic.value.IntegerValue
77

@<SCITEGIC>MOL_PROPERTY
Conf_Id
SciTegic.value.IntegerValue
860

@<SCITEGIC>MOL_PROPERTY
Probability
SciTegic.value.DoubleValue
0.00

@<SCITEGIC>MOL_PROPERTY
Sum Probability
SciTegic.value.DoubleValue
99.99

@<SCITEGIC>MOL_PROPERTY
Delta G
SciTegic.value.DoubleValue
4.902

@<SCITEGIC>MOL_PROPERTY
G
SciTegic.value.DoubleValue
28.614

@<SCITEGIC>MOL_PROPERTY
E
SciTegic.value.DoubleValue
-5.029

@<SCITEGIC>MOL_PROPERTY
-TS
SciTegic.value.DoubleValue
33.643

@<SCITEGIC>MOL_PROPERTY
U+W
SciTegic.value.DoubleValue
-26.491

@<SCITEGIC>MOL_PROPERTY
U
SciTegic.value.DoubleValue
27.281

@<SCITEGIC>MOL_PROPERTY
W
SciTegic.value.DoubleValue
-53.772

@<SCITEGIC>MOL_PROPERTY
W(PB)
SciTegic.value.DoubleValue
-55.968

@<SCITEGIC>MOL_PROPERTY
W(SA)
SciTegic.value.DoubleValue
2.197

@<SCITEGIC>MOL_PROPERTY
Valence
SciTegic.value.DoubleValue
5.160

@<SCITEGIC>MOL_PROPERTY
Coulomb
SciTegic.value.DoubleValue
21.563

@<SCITEGIC>MOL_PROPERTY
VdW
SciTegic.value.DoubleValue
0.557

@<SCITEGIC>MOL_PROPERTY
VdW6
SciTegic.value.DoubleValue
-10.215

@<SCITEGIC>MOL_PROPERTY
VdW12
SciTegic.value.DoubleValue
10.773

@<SCITEGIC>MOL_PROPERTY
Bond
SciTegic.value.DoubleValue
0.332

@<SCITEGIC>MOL_PROPERTY
Angle
SciTegic.value.DoubleValue
2.658

@<SCITEGIC>MOL_PROPERTY
Pdih
SciTegic.value.DoubleValue
2.170

@<SCITEGIC>MOL_PROPERTY
Idih
SciTegic.value.DoubleValue
0.000

@<SCITEGIC>MOL_PROPERTY
Tether
SciTegic.value.DoubleValue
0.000

@<TRIPOS>MOLECULE
guest-s13_vm2.mol2 : vm2 ligand conformer 78
          26          25           1
SMALL
USER_CHARGES
 
@<TRIPOS>ATOM
       1    C1      20.199348   19.077954   19.445035 C.3        1 MOL1        -0.2398
       2    H1      20.518352   18.580380   18.520056 H          1 MOL1         0.0972
       3    H2      19.203129   19.504293   19.269588 H          1 MOL1         0.0972
       4    H3      20.898385   19.902141   19.631906 H          1 MOL1         0.0972
       5    C2      20.174777   18.071657   20.618246 C.3        1 MOL1        -0.1383
       6    H4      21.187997   17.685664   20.797535 H          1 MOL1         0.0961
       7    H5      19.564414   17.206259   20.324295 H          1 MOL1         0.0961
       8    C3      19.597085   18.660914   21.928122 C.3        1 MOL1        -0.1407
       9    H6      18.594500   19.067541   21.736871 H          1 MOL1         0.0961
      10    H7      19.473745   17.833216   22.636010 H          1 MOL1         0.0961
      11    C4      20.496051   19.750140   22.564175 C.3        1 MOL1        -0.1407
      12    H8      20.707356   20.523418   21.815037 H          1 MOL1         0.0961
      13    H9      21.471023   19.317190   22.824678 H          1 MOL1         0.0961
      14    C5      19.883118   20.466765   23.801307 C.3        1 MOL1        -0.1472
      15    H10     20.594778   21.242560   24.112701 H          1 MOL1         0.0961
      16    H11     18.978855   21.011702   23.499675 H          1 MOL1         0.0961
      17    C6      19.575146   19.602268   25.051658 C.3        1 MOL1         0.1190
      18    H12     19.616265   20.275152   25.913828 H          1 MOL1         0.0923
      19    C7      18.151528   19.014921   25.031222 C.3        1 MOL1        -0.2463
      20    H13     18.009370   18.284938   24.229105 H          1 MOL1         0.0972
      21    H14     17.406142   19.809420   24.902526 H          1 MOL1         0.0972
      22    H15     17.933086   18.511907   25.981168 H          1 MOL1         0.0972
      23    N1      20.610947   18.543381   25.314235 N.4        1 MOL1        -0.5974
      24    H16     20.652068   17.869373   24.545998 H          1 MOL1         0.3625
      25    H17     21.544266   18.951941   25.416262 H          1 MOL1         0.3625
      26    H18     20.407900   18.024407   26.173220 H          1 MOL1         0.3625
@<TRIPOS>BOND
    1     1     2    1
    2     1     3    1
    3     1     4    1
    4     1     5    1
    5     5     6    1
    6     5     7    1
    7     5     8    1
    8     8     9    1
    9     8    10    1
   10     8    11    1
   11    11    12    1
   12    11    13    1
   13    11    14    1
   14    14    15    1
   15    14    16    1
   16    14    17    1
   17    17    18    1
   18    17    19    1
   19    19    20    1
   20    19    21    1
   21    19    22    1
   22    17    23    1
   23    23    24    1
   24    23    25    1
   25    23    26    1
@<TRIPOS>SUBSTRUCTURE
       1 MOL1            1 RESIDUE      1      MOL     
@<SCITEGIC>MOL_PROPERTY
VM2 Rank
SciTegic.value.IntegerValue
78

@<SCITEGIC>MOL_PROPERTY
Conf_Id
SciTegic.value.IntegerValue
83

@<SCITEGIC>MOL_PROPERTY
Probability
SciTegic.value.DoubleValue
0.00

@<SCITEGIC>MOL_PROPERTY
Sum Probability
SciTegic.value.DoubleValue
99.99

@<SCITEGIC>MOL_PROPERTY
Delta G
SciTegic.value.DoubleValue
4.930

@<SCITEGIC>MOL_PROPERTY
G
SciTegic.value.DoubleValue
28.642

@<SCITEGIC>MOL_PROPERTY
E
SciTegic.value.DoubleValue
-4.460

@<SCITEGIC>MOL_PROPERTY
-TS
SciTegic.value.DoubleValue
33.102

@<SCITEGIC>MOL_PROPERTY
U+W
SciTegic.value.DoubleValue
-25.922

@<SCITEGIC>MOL_PROPERTY
U
SciTegic.value.DoubleValue
28.238

@<SCITEGIC>MOL_PROPERTY
W
SciTegic.value.DoubleValue
-54.160

@<SCITEGIC>MOL_PROPERTY
W(PB)
SciTegic.value.DoubleValue
-56.416

@<SCITEGIC>MOL_PROPERTY
W(SA)
SciTegic.value.DoubleValue
2.256

@<SCITEGIC>MOL_PROPERTY
Valence
SciTegic.value.DoubleValue
6.520

@<SCITEGIC>MOL_PROPERTY
Coulomb
SciTegic.value.DoubleValue
20.564

@<SCITEGIC>MOL_PROPERTY
VdW
SciTegic.value.DoubleValue
1.154

@<SCITEGIC>MOL_PROPERTY
VdW6
SciTegic.value.DoubleValue
-9.254

@<SCITEGIC>MOL_PROPERTY
VdW12
SciTegic.value.DoubleValue
10.408

@<SCITEGIC>MOL_PROPERTY
Bond
SciTegic.value.DoubleValue
0.327

@<SCITEGIC>MOL_PROPERTY
Angle
SciTegic.value.DoubleValue
2.699

@<SCITEGIC>MOL_PROPERTY
Pdih
SciTegic.value.DoubleValue
3.494

@<SCITEGIC>MOL_PROPERTY
Idih
SciTegic.value.DoubleValue
0.000

@<SCITEGIC>MOL_PROPERTY
Tether
SciTegic.value.DoubleValue
0.000

@<TRIPOS>MOLECULE
guest-s13_vm2.mol2 : vm2 ligand conformer 79
          26          25           1
SMALL
USER_CHARGES
 
@<TRIPOS>ATOM
       1    C1      20.793591   19.184633   19.961625 C.3        1 MOL1        -0.2398
       2    H1      20.723193   20.242729   20.242858 H          1 MOL1         0.0972
       3    H2      21.768932   19.034604   19.480968 H          1 MOL1         0.0972
       4    H3      20.015783   18.974038   19.216244 H          1 MOL1         0.0972
       5    C2      20.648646   18.261272   21.192071 C.3        1 MOL1        -0.1383
       6    H4      21.428820   18.504784   21.923895 H          1 MOL1         0.0961
       7    H5      20.839427   17.225133   20.879403 H          1 MOL1         0.0961
       8    C3      19.245042   18.329678   21.846868 C.3        1 MOL1        -0.1407
       9    H6      18.499431   18.013414   21.104350 H          1 MOL1         0.0961
      10    H7      19.177848   17.588643   22.652301 H          1 MOL1         0.0961
      11    C4      18.834475   19.726501   22.384351 C.3        1 MOL1        -0.1407
      12    H8      17.819439   19.661986   22.797817 H          1 MOL1         0.0961
      13    H9      18.746989   20.417563   21.535639 H          1 MOL1         0.0961
      14    C5      19.784156   20.367055   23.438639 C.3        1 MOL1        -0.1472
      15    H10     20.773574   20.534764   22.995124 H          1 MOL1         0.0961
      16    H11     19.398745   21.370466   23.662224 H          1 MOL1         0.0961
      17    C6      19.949396   19.625483   24.790401 C.3        1 MOL1         0.1190
      18    H12     20.468524   20.312186   25.466172 H          1 MOL1         0.0923
      19    C7      18.598238   19.279589   25.440074 C.3        1 MOL1        -0.2463
      20    H13     17.961028   20.169848   25.510249 H          1 MOL1         0.0972
      21    H14     18.748044   18.896708   26.456948 H          1 MOL1         0.0972
      22    H15     18.059252   18.513623   24.869808 H          1 MOL1         0.0972
      23    N1      20.834455   18.413789   24.699969 N.4        1 MOL1        -0.5974
      24    H16     20.447521   17.722209   24.054299 H          1 MOL1         0.3625
      25    H17     21.770850   18.659264   24.366977 H          1 MOL1         0.3625
      26    H18     20.943213   17.961926   25.612411 H          1 MOL1         0.3625
@<TRIPOS>BOND
    1     1     2    1
    2     1     3    1
    3     1     4    1
    4     1     5    1
    5     5     6    1
    6     5     7    1
    7     5     8    1
    8     8     9    1
    9     8    10    1
   10     8    11    1
   11    11    12    1
   12    11    13    1
   13    11    14    1
   14    14    15    1
   15    14    16    1
   16    14    17    1
   17    17    18    1
   18    17    19    1
   19    19    20    1
   20    19    21    1
   21    19    22    1
   22    17    23    1
   23    23    24    1
   24    23    25    1
   25    23    26    1
@<TRIPOS>SUBSTRUCTURE
       1 MOL1            1 RESIDUE      1      MOL     
@<SCITEGIC>MOL_PROPERTY
VM2 Rank
SciTegic.value.IntegerValue
79

@<SCITEGIC>MOL_PROPERTY
Conf_Id
SciTegic.value.IntegerValue
421

@<SCITEGIC>MOL_PROPERTY
Probability
SciTegic.value.DoubleValue
0.00

@<SCITEGIC>MOL_PROPERTY
Sum Probability
SciTegic.value.DoubleValue
99.99

@<SCITEGIC>MOL_PROPERTY
Delta G
SciTegic.value.DoubleValue
5.058

@<SCITEGIC>MOL_PROPERTY
G
SciTegic.value.DoubleValue
28.770

@<SCITEGIC>MOL_PROPERTY
E
SciTegic.value.DoubleValue
-5.031

@<SCITEGIC>MOL_PROPERTY
-TS
SciTegic.value.DoubleValue
33.801

@<SCITEGIC>MOL_PROPERTY
U+W
SciTegic.value.DoubleValue
-26.493

@<SCITEGIC>MOL_PROPERTY
U
SciTegic.value.DoubleValue
27.883

@<SCITEGIC>MOL_PROPERTY
W
SciTegic.value.DoubleValue
-54.375

@<SCITEGIC>MOL_PROPERTY
W(PB)
SciTegic.value.DoubleValue
-56.572

@<SCITEGIC>MOL_PROPERTY
W(SA)
SciTegic.value.DoubleValue
2.197

@<SCITEGIC>MOL_PROPERTY
Valence
SciTegic.value.DoubleValue
5.604

@<SCITEGIC>MOL_PROPERTY
Coulomb
SciTegic.value.DoubleValue
21.671

@<SCITEGIC>MOL_PROPERTY
VdW
SciTegic.value.DoubleValue
0.608

@<SCITEGIC>MOL_PROPERTY
VdW6
SciTegic.value.DoubleValue
-10.842

@<SCITEGIC>MOL_PROPERTY
VdW12
SciTegic.value.DoubleValue
11.449

@<SCITEGIC>MOL_PROPERTY
Bond
SciTegic.value.DoubleValue
0.377

@<SCITEGIC>MOL_PROPERTY
Angle
SciTegic.value.DoubleValue
2.942

@<SCITEGIC>MOL_PROPERTY
Pdih
SciTegic.value.DoubleValue
2.284

@<SCITEGIC>MOL_PROPERTY
Idih
SciTegic.value.DoubleValue
0.000

@<SCITEGIC>MOL_PROPERTY
Tether
SciTegic.value.DoubleValue
0.000

@<TRIPOS>MOLECULE
guest-s13_vm2.mol2 : vm2 ligand conformer 80
          26          25           1
SMALL
USER_CHARGES
 
@<TRIPOS>ATOM
       1    C1      19.836863   19.487678   19.836466 C.3        1 MOL1        -0.2398
       2    H1      19.058680   19.766816   19.114435 H          1 MOL1         0.0972
       3    H2      20.273760   20.415314   20.226606 H          1 MOL1         0.0972
       4    H3      20.618512   18.940789   19.293462 H          1 MOL1         0.0972
       5    C2      19.239257   18.623410   20.969530 C.3        1 MOL1        -0.1383
       6    H4      18.716495   17.766635   20.522093 H          1 MOL1         0.0961
       7    H5      18.472548   19.198629   21.503717 H          1 MOL1         0.0961
       8    C3      20.304437   18.088994   21.960911 C.3        1 MOL1        -0.1407
       9    H6      19.827812   17.418679   22.685634 H          1 MOL1         0.0961
      10    H7      21.009307   17.455120   21.405447 H          1 MOL1         0.0961
      11    C4      21.115324   19.179039   22.709492 C.3        1 MOL1        -0.1407
      12    H8      21.722604   19.724629   21.975140 H          1 MOL1         0.0961
      13    H9      21.846386   18.688876   23.365693 H          1 MOL1         0.0961
      14    C5      20.296421   20.220633   23.528124 C.3        1 MOL1        -0.1472
      15    H10     21.009684   20.969147   23.897018 H          1 MOL1         0.0961
      16    H11     19.621937   20.778075   22.866065 H          1 MOL1         0.0961
      17    C6      19.512215   19.703551   24.762887 C.3        1 MOL1         0.1190
      18    H12     19.368771   20.565477   25.421876 H          1 MOL1         0.0923
      19    C7      18.104458   19.189352   24.412794 C.3        1 MOL1        -0.2463
      20    H13     18.131801   18.264850   23.828843 H          1 MOL1         0.0972
      21    H14     17.545575   19.940837   23.841752 H          1 MOL1         0.0972
      22    H15     17.536510   18.984501   25.328518 H          1 MOL1         0.0972
      23    N1      20.279025   18.695343   25.573796 N.4        1 MOL1        -0.5974
      24    H16     21.182948   19.068805   25.876695 H          1 MOL1         0.3625
      25    H17     19.763521   18.419687   26.414365 H          1 MOL1         0.3625
      26    H18     20.461327   17.848202   25.030298 H          1 MOL1         0.3625
@<TRIPOS>BOND
    1     1     2    1
    2     1     3    1
    3     1     4    1
    4     1     5    1
    5     5     6    1
    6     5     7    1
    7     5     8    1
    8     8     9    1
    9     8    10    1
   10     8    11    1
   11    11    12    1
   12    11    13    1
   13    11    14    1
   14    14    15    1
   15    14    16    1
   16    14    17    1
   17    17    18    1
   18    17    19    1
   19    19    20    1
   20    19    21    1
   21    19    22    1
   22    17    23    1
   23    23    24    1
   24    23    25    1
   25    23    26    1
@<TRIPOS>SUBSTRUCTURE
       1 MOL1            1 RESIDUE      1      MOL     
@<SCITEGIC>MOL_PROPERTY
VM2 Rank
SciTegic.value.IntegerValue
80

@<SCITEGIC>MOL_PROPERTY
Conf_Id
SciTegic.value.IntegerValue
30

@<SCITEGIC>MOL_PROPERTY
Probability
SciTegic.value.DoubleValue
0.00

@<SCITEGIC>MOL_PROPERTY
Sum Probability
SciTegic.value.DoubleValue
100.00

@<SCITEGIC>MOL_PROPERTY
Delta G
SciTegic.value.DoubleValue
5.263

@<SCITEGIC>MOL_PROPERTY
G
SciTegic.value.DoubleValue
28.975

@<SCITEGIC>MOL_PROPERTY
E
SciTegic.value.DoubleValue
-4.847

@<SCITEGIC>MOL_PROPERTY
-TS
SciTegic.value.DoubleValue
33.822

@<SCITEGIC>MOL_PROPERTY
U+W
SciTegic.value.DoubleValue
-26.309

@<SCITEGIC>MOL_PROPERTY
U
SciTegic.value.DoubleValue
28.161

@<SCITEGIC>MOL_PROPERTY
W
SciTegic.value.DoubleValue
-54.470

@<SCITEGIC>MOL_PROPERTY
W(PB)
SciTegic.value.DoubleValue
-56.647

@<SCITEGIC>MOL_PROPERTY
W(SA)
SciTegic.value.DoubleValue
2.177

@<SCITEGIC>MOL_PROPERTY
Valence
SciTegic.value.DoubleValue
6.893

@<SCITEGIC>MOL_PROPERTY
Coulomb
SciTegic.value.DoubleValue
20.537

@<SCITEGIC>MOL_PROPERTY
VdW
SciTegic.value.DoubleValue
0.732

@<SCITEGIC>MOL_PROPERTY
VdW6
SciTegic.value.DoubleValue
-10.681

@<SCITEGIC>MOL_PROPERTY
VdW12
SciTegic.value.DoubleValue
11.413

@<SCITEGIC>MOL_PROPERTY
Bond
SciTegic.value.DoubleValue
0.380

@<SCITEGIC>MOL_PROPERTY
Angle
SciTegic.value.DoubleValue
3.328

@<SCITEGIC>MOL_PROPERTY
Pdih
SciTegic.value.DoubleValue
3.185

@<SCITEGIC>MOL_PROPERTY
Idih
SciTegic.value.DoubleValue
0.000

@<SCITEGIC>MOL_PROPERTY
Tether
SciTegic.value.DoubleValue
0.000

@<TRIPOS>MOLECULE
guest-s13_vm2.mol2 : vm2 ligand conformer 81
          26          25           1
SMALL
USER_CHARGES
 
@<TRIPOS>ATOM
       1    C1      20.227612   20.176771   19.814366 C.3        1 MOL1        -0.2398
       2    H1      21.059373   20.841430   19.547097 H          1 MOL1         0.0972
       3    H2      20.029637   19.522833   18.955063 H          1 MOL1         0.0972
       4    H3      19.339213   20.799511   19.982029 H          1 MOL1         0.0972
       5    C2      20.571862   19.351797   21.072333 C.3        1 MOL1        -0.1383
       6    H4      20.807522   20.037204   21.894299 H          1 MOL1         0.0961
       7    H5      21.482945   18.767068   20.883197 H          1 MOL1         0.0961
       8    C3      19.416097   18.398170   21.461075 C.3        1 MOL1        -0.1407
       9    H6      18.479105   18.955693   21.592641 H          1 MOL1         0.0961
      10    H7      19.242590   17.717525   20.615981 H          1 MOL1         0.0961
      11    C4      19.709699   17.541995   22.719740 C.3        1 MOL1        -0.1407
      12    H8      20.778645   17.292179   22.767378 H          1 MOL1         0.0961
      13    H9      19.189122   16.581633   22.600522 H          1 MOL1         0.0961
      14    C5      19.244843   18.152890   24.069152 C.3        1 MOL1        -0.1472
      15    H10     18.160778   18.327410   24.049000 H          1 MOL1         0.0961
      16    H11     19.401375   17.386199   24.839496 H          1 MOL1         0.0961
      17    C6      19.990356   19.441578   24.490512 C.3        1 MOL1         0.1190
      18    H12     20.932927   19.488032   23.937577 H          1 MOL1         0.0923
      19    C7      19.163001   20.702507   24.179354 C.3        1 MOL1        -0.2463
      20    H13     18.235849   20.720853   24.765730 H          1 MOL1         0.0972
      21    H14     18.890406   20.754280   23.119633 H          1 MOL1         0.0972
      22    H15     19.733625   21.608036   24.419367 H          1 MOL1         0.0972
      23    N1      20.364529   19.422294   25.947469 N.4        1 MOL1        -0.5974
      24    H16     20.883819   20.264364   26.211622 H          1 MOL1         0.3625
      25    H17     19.535724   19.374757   26.546210 H          1 MOL1         0.3625
      26    H18     20.955243   18.617059   26.174328 H          1 MOL1         0.3625
@<TRIPOS>BOND
    1     1     2    1
    2     1     3    1
    3     1     4    1
    4     1     5    1
    5     5     6    1
    6     5     7    1
    7     5     8    1
    8     8     9    1
    9     8    10    1
   10     8    11    1
   11    11    12    1
   12    11    13    1
   13    11    14    1
   14    14    15    1
   15    14    16    1
   16    14    17    1
   17    17    18    1
   18    17    19    1
   19    19    20    1
   20    19    21    1
   21    19    22    1
   22    17    23    1
   23    23    24    1
   24    23    25    1
   25    23    26    1
@<TRIPOS>SUBSTRUCTURE
       1 MOL1            1 RESIDUE      1      MOL     
@<SCITEGIC>MOL_PROPERTY
VM2 Rank
SciTegic.value.IntegerValue
81

@<SCITEGIC>MOL_PROPERTY
Conf_Id
SciTegic.value.IntegerValue
85

@<SCITEGIC>MOL_PROPERTY
Probability
SciTegic.value.DoubleValue
0.00

@<SCITEGIC>MOL_PROPERTY
Sum Probability
SciTegic.value.DoubleValue
100.00

@<SCITEGIC>MOL_PROPERTY
Delta G
SciTegic.value.DoubleValue
5.954

@<SCITEGIC>MOL_PROPERTY
G
SciTegic.value.DoubleValue
29.666

@<SCITEGIC>MOL_PROPERTY
E
SciTegic.value.DoubleValue
-3.530

@<SCITEGIC>MOL_PROPERTY
-TS
SciTegic.value.DoubleValue
33.196

@<SCITEGIC>MOL_PROPERTY
U+W
SciTegic.value.DoubleValue
-24.992

@<SCITEGIC>MOL_PROPERTY
U
SciTegic.value.DoubleValue
29.319

@<SCITEGIC>MOL_PROPERTY
W
SciTegic.value.DoubleValue
-54.311

@<SCITEGIC>MOL_PROPERTY
W(PB)
SciTegic.value.DoubleValue
-56.566

@<SCITEGIC>MOL_PROPERTY
W(SA)
SciTegic.value.DoubleValue
2.254

@<SCITEGIC>MOL_PROPERTY
Valence
SciTegic.value.DoubleValue
8.264

@<SCITEGIC>MOL_PROPERTY
Coulomb
SciTegic.value.DoubleValue
20.281

@<SCITEGIC>MOL_PROPERTY
VdW
SciTegic.value.DoubleValue
0.774

@<SCITEGIC>MOL_PROPERTY
VdW6
SciTegic.value.DoubleValue
-9.226

@<SCITEGIC>MOL_PROPERTY
VdW12
SciTegic.value.DoubleValue
10.000

@<SCITEGIC>MOL_PROPERTY
Bond
SciTegic.value.DoubleValue
0.262

@<SCITEGIC>MOL_PROPERTY
Angle
SciTegic.value.DoubleValue
2.116

@<SCITEGIC>MOL_PROPERTY
Pdih
SciTegic.value.DoubleValue
5.886

@<SCITEGIC>MOL_PROPERTY
Idih
SciTegic.value.DoubleValue
0.000

@<SCITEGIC>MOL_PROPERTY
Tether
SciTegic.value.DoubleValue
0.000

@<TRIPOS>MOLECULE
guest-s13_vm2.mol2 : vm2 ligand conformer 82
          26          25           1
SMALL
USER_CHARGES
 
@<TRIPOS>ATOM
       1    C1      20.003768   20.464401   20.804799 C.3        1 MOL1        -0.2398
       2    H1      20.693308   21.309640   20.682350 H          1 MOL1         0.0972
       3    H2      19.392614   20.399373   19.895200 H          1 MOL1         0.0972
       4    H3      19.333312   20.695895   21.639432 H          1 MOL1         0.0972
       5    C2      20.788822   19.151280   21.031840 C.3        1 MOL1        -0.1383
       6    H4      21.500781   19.259935   21.860868 H          1 MOL1         0.0961
       7    H5      21.400908   18.966985   20.137775 H          1 MOL1         0.0961
       8    C3      19.869564   17.925366   21.261874 C.3        1 MOL1        -0.1407
       9    H6      18.904852   18.076070   20.758004 H          1 MOL1         0.0961
      10    H7      20.327971   17.061714   20.760401 H          1 MOL1         0.0961
      11    C4      19.637228   17.527282   22.744510 C.3        1 MOL1        -0.1407
      12    H8      20.591837   17.251235   23.210176 H          1 MOL1         0.0961
      13    H9      19.039579   16.605236   22.742618 H          1 MOL1         0.0961
      14    C5      18.884597   18.573363   23.610048 C.3        1 MOL1        -0.1472
      15    H10     18.086310   19.028625   23.009338 H          1 MOL1         0.0961
      16    H11     18.378912   18.050538   24.432739 H          1 MOL1         0.0961
      17    C6      19.783865   19.674804   24.217511 C.3        1 MOL1         0.1190
      18    H12     20.347047   20.152738   23.412634 H          1 MOL1         0.0923
      19    C7      18.922644   20.748860   24.900771 C.3        1 MOL1        -0.2463
      20    H13     18.338306   20.323543   25.726336 H          1 MOL1         0.0972
      21    H14     18.224338   21.201851   24.186057 H          1 MOL1         0.0972
      22    H15     19.551473   21.551633   25.305108 H          1 MOL1         0.0972
      23    N1      20.797512   19.122643   25.182647 N.4        1 MOL1        -0.5974
      24    H16     21.407883   18.435459   24.732906 H          1 MOL1         0.3625
      25    H17     21.395491   19.862338   25.561630 H          1 MOL1         0.3625
      26    H18     20.344320   18.659982   25.975027 H          1 MOL1         0.3625
@<TRIPOS>BOND
    1     1     2    1
    2     1     3    1
    3     1     4    1
    4     1     5    1
    5     5     6    1
    6     5     7    1
    7     5     8    1
    8     8     9    1
    9     8    10    1
   10     8    11    1
   11    11    12    1
   12    11    13    1
   13    11    14    1
   14    14    15    1
   15    14    16    1
   16    14    17    1
   17    17    18    1
   18    17    19    1
   19    19    20    1
   20    19    21    1
   21    19    22    1
   22    17    23    1
   23    23    24    1
   24    23    25    1
   25    23    26    1
@<TRIPOS>SUBSTRUCTURE
       1 MOL1            1 RESIDUE      1      MOL     
@<SCITEGIC>MOL_PROPERTY
VM2 Rank
SciTegic.value.IntegerValue
82

@<SCITEGIC>MOL_PROPERTY
Conf_Id
SciTegic.value.IntegerValue
73

@<SCITEGIC>MOL_PROPERTY
Probability
SciTegic.value.DoubleValue
0.00

@<SCITEGIC>MOL_PROPERTY
Sum Probability
SciTegic.value.DoubleValue
100.00

@<SCITEGIC>MOL_PROPERTY
Delta G
SciTegic.value.DoubleValue
5.962

@<SCITEGIC>MOL_PROPERTY
G
SciTegic.value.DoubleValue
29.674

@<SCITEGIC>MOL_PROPERTY
E
SciTegic.value.DoubleValue
-3.801

@<SCITEGIC>MOL_PROPERTY
-TS
SciTegic.value.DoubleValue
33.475

@<SCITEGIC>MOL_PROPERTY
U+W
SciTegic.value.DoubleValue
-25.263

@<SCITEGIC>MOL_PROPERTY
U
SciTegic.value.DoubleValue
29.018

@<SCITEGIC>MOL_PROPERTY
W
SciTegic.value.DoubleValue
-54.280

@<SCITEGIC>MOL_PROPERTY
W(PB)
SciTegic.value.DoubleValue
-56.487

@<SCITEGIC>MOL_PROPERTY
W(SA)
SciTegic.value.DoubleValue
2.207

@<SCITEGIC>MOL_PROPERTY
Valence
SciTegic.value.DoubleValue
7.756

@<SCITEGIC>MOL_PROPERTY
Coulomb
SciTegic.value.DoubleValue
20.779

@<SCITEGIC>MOL_PROPERTY
VdW
SciTegic.value.DoubleValue
0.484

@<SCITEGIC>MOL_PROPERTY
VdW6
SciTegic.value.DoubleValue
-10.173

@<SCITEGIC>MOL_PROPERTY
VdW12
SciTegic.value.DoubleValue
10.657

@<SCITEGIC>MOL_PROPERTY
Bond
SciTegic.value.DoubleValue
0.300

@<SCITEGIC>MOL_PROPERTY
Angle
SciTegic.value.DoubleValue
2.387

@<SCITEGIC>MOL_PROPERTY
Pdih
SciTegic.value.DoubleValue
5.069

@<SCITEGIC>MOL_PROPERTY
Idih
SciTegic.value.DoubleValue
0.000

@<SCITEGIC>MOL_PROPERTY
Tether
SciTegic.value.DoubleValue
0.000

@<TRIPOS>MOLECULE
guest-s13_vm2.mol2 : vm2 ligand conformer 83
          26          25           1
SMALL
USER_CHARGES
 
@<TRIPOS>ATOM
       1    C1      19.122793   18.451270   20.212858 C.3        1 MOL1        -0.2398
       2    H1      18.867758   18.236253   19.167115 H          1 MOL1         0.0972
       3    H2      18.800400   17.595191   20.819430 H          1 MOL1         0.0972
       4    H3      18.544503   19.332185   20.518131 H          1 MOL1         0.0972
       5    C2      20.640740   18.696628   20.358954 C.3        1 MOL1        -0.1383
       6    H4      20.928123   19.574104   19.762968 H          1 MOL1         0.0961
       7    H5      21.179514   17.843492   19.923470 H          1 MOL1         0.0961
       8    C3      21.113029   18.884490   21.823033 C.3        1 MOL1        -0.1407
       9    H6      20.903244   17.971855   22.393609 H          1 MOL1         0.0961
      10    H7      22.207178   18.984705   21.808536 H          1 MOL1         0.0961
      11    C4      20.519969   20.134713   22.528844 C.3        1 MOL1        -0.1407
      12    H8      20.304453   20.901596   21.772092 H          1 MOL1         0.0961
      13    H9      21.282046   20.581657   23.182292 H          1 MOL1         0.0961
      14    C5      19.237987   19.864022   23.362998 C.3        1 MOL1        -0.1472
      15    H10     18.625353   20.775176   23.346050 H          1 MOL1         0.0961
      16    H11     18.628028   19.080300   22.898092 H          1 MOL1         0.0961
      17    C6      19.517590   19.508272   24.841687 C.3        1 MOL1         0.1190
      18    H12     20.100834   20.323206   25.281383 H          1 MOL1         0.0923
      19    C7      18.197599   19.388881   25.620277 C.3        1 MOL1        -0.2463
      20    H13     17.625512   20.323366   25.564115 H          1 MOL1         0.0972
      21    H14     18.389217   19.179817   26.679972 H          1 MOL1         0.0972
      22    H15     17.572314   18.580964   25.220065 H          1 MOL1         0.0972
      23    N1      20.338291   18.259724   25.005349 N.4        1 MOL1        -0.5974
      24    H16     19.849731   17.441752   24.632265 H          1 MOL1         0.3625
      25    H17     21.232391   18.339938   24.513358 H          1 MOL1         0.3625
      26    H18     20.543572   18.072926   25.990985 H          1 MOL1         0.3625
@<TRIPOS>BOND
    1     1     2    1
    2     1     3    1
    3     1     4    1
    4     1     5    1
    5     5     6    1
    6     5     7    1
    7     5     8    1
    8     8     9    1
    9     8    10    1
   10     8    11    1
   11    11    12    1
   12    11    13    1
   13    11    14    1
   14    14    15    1
   15    14    16    1
   16    14    17    1
   17    17    18    1
   18    17    19    1
   19    19    20    1
   20    19    21    1
   21    19    22    1
   22    17    23    1
   23    23    24    1
   24    23    25    1
   25    23    26    1
@<TRIPOS>SUBSTRUCTURE
       1 MOL1            1 RESIDUE      1      MOL     
@<SCITEGIC>MOL_PROPERTY
VM2 Rank
SciTegic.value.IntegerValue
83

@<SCITEGIC>MOL_PROPERTY
Conf_Id
SciTegic.value.IntegerValue
260

@<SCITEGIC>MOL_PROPERTY
Probability
SciTegic.value.DoubleValue
0.00

@<SCITEGIC>MOL_PROPERTY
Sum Probability
SciTegic.value.DoubleValue
100.00

@<SCITEGIC>MOL_PROPERTY
Delta G
SciTegic.value.DoubleValue
6.145

@<SCITEGIC>MOL_PROPERTY
G
SciTegic.value.DoubleValue
29.858

@<SCITEGIC>MOL_PROPERTY
E
SciTegic.value.DoubleValue
-3.254

@<SCITEGIC>MOL_PROPERTY
-TS
SciTegic.value.DoubleValue
33.112

@<SCITEGIC>MOL_PROPERTY
U+W
SciTegic.value.DoubleValue
-24.716

@<SCITEGIC>MOL_PROPERTY
U
SciTegic.value.DoubleValue
29.339

@<SCITEGIC>MOL_PROPERTY
W
SciTegic.value.DoubleValue
-54.055

@<SCITEGIC>MOL_PROPERTY
W(PB)
SciTegic.value.DoubleValue
-56.308

@<SCITEGIC>MOL_PROPERTY
W(SA)
SciTegic.value.DoubleValue
2.253

@<SCITEGIC>MOL_PROPERTY
Valence
SciTegic.value.DoubleValue
7.537

@<SCITEGIC>MOL_PROPERTY
Coulomb
SciTegic.value.DoubleValue
20.791

@<SCITEGIC>MOL_PROPERTY
VdW
SciTegic.value.DoubleValue
1.011

@<SCITEGIC>MOL_PROPERTY
VdW6
SciTegic.value.DoubleValue
-9.264

@<SCITEGIC>MOL_PROPERTY
VdW12
SciTegic.value.DoubleValue
10.275

@<SCITEGIC>MOL_PROPERTY
Bond
SciTegic.value.DoubleValue
0.315

@<SCITEGIC>MOL_PROPERTY
Angle
SciTegic.value.DoubleValue
1.806

@<SCITEGIC>MOL_PROPERTY
Pdih
SciTegic.value.DoubleValue
5.416

@<SCITEGIC>MOL_PROPERTY
Idih
SciTegic.value.DoubleValue
0.000

@<SCITEGIC>MOL_PROPERTY
Tether
SciTegic.value.DoubleValue
0.000

@<TRIPOS>MOLECULE
guest-s13_vm2.mol2 : vm2 ligand conformer 84
          26          25           1
SMALL
USER_CHARGES
 
@<TRIPOS>ATOM
       1    C1      20.167916   19.995727   20.062968 C.3        1 MOL1        -0.2398
       2    H1      21.048695   20.316535   20.633007 H          1 MOL1         0.0972
       3    H2      20.372295   20.192631   19.002633 H          1 MOL1         0.0972
       4    H3      19.313978   20.617637   20.360906 H          1 MOL1         0.0972
       5    C2      19.869083   18.496884   20.285964 C.3        1 MOL1        -0.1383
       6    H4      20.749278   17.903004   20.002627 H          1 MOL1         0.0961
       7    H5      19.064091   18.192419   19.602576 H          1 MOL1         0.0961
       8    C3      19.447523   18.142763   21.734891 C.3        1 MOL1        -0.1407
       9    H6      18.519064   18.669237   21.988307 H          1 MOL1         0.0961
      10    H7      19.198392   17.072867   21.756122 H          1 MOL1         0.0961
      11    C4      20.543282   18.406080   22.803510 C.3        1 MOL1        -0.1407
      12    H8      21.530197   18.292656   22.334265 H          1 MOL1         0.0961
      13    H9      20.497646   17.618352   23.566242 H          1 MOL1         0.0961
      14    C5      20.459917   19.801661   23.487569 C.3        1 MOL1        -0.1472
      15    H10     21.481398   20.148710   23.690888 H          1 MOL1         0.0961
      16    H11     20.034076   20.539605   22.797543 H          1 MOL1         0.0961
      17    C6      19.673997   19.851789   24.821439 C.3        1 MOL1         0.1190
      18    H12     19.700000   20.888180   25.172138 H          1 MOL1         0.0923
      19    C7      18.197159   19.457320   24.655245 C.3        1 MOL1        -0.2463
      20    H13     17.715237   20.070333   23.883739 H          1 MOL1         0.0972
      21    H14     17.649901   19.614030   25.592817 H          1 MOL1         0.0972
      22    H15     18.091037   18.401897   24.377115 H          1 MOL1         0.0972
      23    N1      20.329123   19.035776   25.902414 N.4        1 MOL1        -0.5974
      24    H16     20.339515   18.041227   25.664223 H          1 MOL1         0.3625
      25    H17     21.298938   19.325830   26.056445 H          1 MOL1         0.3625
      26    H18     19.836150   19.132477   26.794577 H          1 MOL1         0.3625
@<TRIPOS>BOND
    1     1     2    1
    2     1     3    1
    3     1     4    1
    4     1     5    1
    5     5     6    1
    6     5     7    1
    7     5     8    1
    8     8     9    1
    9     8    10    1
   10     8    11    1
   11    11    12    1
   12    11    13    1
   13    11    14    1
   14    14    15    1
   15    14    16    1
   16    14    17    1
   17    17    18    1
   18    17    19    1
   19    19    20    1
   20    19    21    1
   21    19    22    1
   22    17    23    1
   23    23    24    1
   24    23    25    1
   25    23    26    1
@<TRIPOS>SUBSTRUCTURE
       1 MOL1            1 RESIDUE      1      MOL     
@<SCITEGIC>MOL_PROPERTY
VM2 Rank
SciTegic.value.IntegerValue
84

@<SCITEGIC>MOL_PROPERTY
Conf_Id
SciTegic.value.IntegerValue
447

@<SCITEGIC>MOL_PROPERTY
Probability
SciTegic.value.DoubleValue
0.00

@<SCITEGIC>MOL_PROPERTY
Sum Probability
SciTegic.value.DoubleValue
100.00

@<SCITEGIC>MOL_PROPERTY
Delta G
SciTegic.value.DoubleValue
6.342

@<SCITEGIC>MOL_PROPERTY
G
SciTegic.value.DoubleValue
30.054

@<SCITEGIC>MOL_PROPERTY
E
SciTegic.value.DoubleValue
-3.334

@<SCITEGIC>MOL_PROPERTY
-TS
SciTegic.value.DoubleValue
33.388

@<SCITEGIC>MOL_PROPERTY
U+W
SciTegic.value.DoubleValue
-24.795

@<SCITEGIC>MOL_PROPERTY
U
SciTegic.value.DoubleValue
29.609

@<SCITEGIC>MOL_PROPERTY
W
SciTegic.value.DoubleValue
-54.405

@<SCITEGIC>MOL_PROPERTY
W(PB)
SciTegic.value.DoubleValue
-56.600

@<SCITEGIC>MOL_PROPERTY
W(SA)
SciTegic.value.DoubleValue
2.195

@<SCITEGIC>MOL_PROPERTY
Valence
SciTegic.value.DoubleValue
8.402

@<SCITEGIC>MOL_PROPERTY
Coulomb
SciTegic.value.DoubleValue
20.135

@<SCITEGIC>MOL_PROPERTY
VdW
SciTegic.value.DoubleValue
1.073

@<SCITEGIC>MOL_PROPERTY
VdW6
SciTegic.value.DoubleValue
-9.966

@<SCITEGIC>MOL_PROPERTY
VdW12
SciTegic.value.DoubleValue
11.038

@<SCITEGIC>MOL_PROPERTY
Bond
SciTegic.value.DoubleValue
0.358

@<SCITEGIC>MOL_PROPERTY
Angle
SciTegic.value.DoubleValue
2.261

@<SCITEGIC>MOL_PROPERTY
Pdih
SciTegic.value.DoubleValue
5.783

@<SCITEGIC>MOL_PROPERTY
Idih
SciTegic.value.DoubleValue
0.000

@<SCITEGIC>MOL_PROPERTY
Tether
SciTegic.value.DoubleValue
0.000

@<TRIPOS>MOLECULE
guest-s13_vm2.mol2 : vm2 ligand conformer 85
          26          25           1
SMALL
USER_CHARGES
 
@<TRIPOS>ATOM
       1    C1      21.506384   18.580277   21.144524 C.3        1 MOL1        -0.2398
       2    H1      21.398778   18.044975   22.094015 H          1 MOL1         0.0972
       3    H2      21.456254   17.838141   20.337150 H          1 MOL1         0.0972
       4    H3      22.507489   19.029891   21.121572 H          1 MOL1         0.0972
       5    C2      20.418752   19.664030   20.959567 C.3        1 MOL1        -0.1383
       6    H4      20.557274   20.114276   19.966566 H          1 MOL1         0.0961
       7    H5      20.556490   20.483235   21.678022 H          1 MOL1         0.0961
       8    C3      18.979365   19.098262   21.050356 C.3        1 MOL1        -0.1407
       9    H6      18.367929   19.609657   20.293967 H          1 MOL1         0.0961
      10    H7      18.969926   18.037662   20.763427 H          1 MOL1         0.0961
      11    C4      18.270365   19.284131   22.419010 C.3        1 MOL1        -0.1407
      12    H8      17.241971   18.915258   22.302341 H          1 MOL1         0.0961
      13    H9      18.166540   20.352801   22.642211 H          1 MOL1         0.0961
      14    C5      18.906133   18.523979   23.615080 C.3        1 MOL1        -0.1472
      15    H10     18.131861   18.357374   24.375726 H          1 MOL1         0.0961
      16    H11     19.207616   17.524786   23.274799 H          1 MOL1         0.0961
      17    C6      20.107707   19.226018   24.293637 C.3        1 MOL1         0.1190
      18    H12     20.841433   19.488008   23.528094 H          1 MOL1         0.0923
      19    C7      19.691577   20.514923   25.025603 C.3        1 MOL1        -0.2463
      20    H13     19.310017   21.268563   24.327948 H          1 MOL1         0.0972
      21    H14     20.551228   20.959567   25.541940 H          1 MOL1         0.0972
      22    H15     18.914130   20.313899   25.773127 H          1 MOL1         0.0972
      23    N1      20.807717   18.296381   25.246223 N.4        1 MOL1        -0.5974
      24    H16     20.188962   18.008193   26.008903 H          1 MOL1         0.3625
      25    H17     21.132259   17.446684   24.776226 H          1 MOL1         0.3625
      26    H18     21.626299   18.741981   25.670288 H          1 MOL1         0.3625
@<TRIPOS>BOND
    1     1     2    1
    2     1     3    1
    3     1     4    1
    4     1     5    1
    5     5     6    1
    6     5     7    1
    7     5     8    1
    8     8     9    1
    9     8    10    1
   10     8    11    1
   11    11    12    1
   12    11    13    1
   13    11    14    1
   14    14    15    1
   15    14    16    1
   16    14    17    1
   17    17    18    1
   18    17    19    1
   19    19    20    1
   20    19    21    1
   21    19    22    1
   22    17    23    1
   23    23    24    1
   24    23    25    1
   25    23    26    1
@<TRIPOS>SUBSTRUCTURE
       1 MOL1            1 RESIDUE      1      MOL     
@<SCITEGIC>MOL_PROPERTY
VM2 Rank
SciTegic.value.IntegerValue
85

@<SCITEGIC>MOL_PROPERTY
Conf_Id
SciTegic.value.IntegerValue
680

@<SCITEGIC>MOL_PROPERTY
Probability
SciTegic.value.DoubleValue
0.00

@<SCITEGIC>MOL_PROPERTY
Sum Probability
SciTegic.value.DoubleValue
100.00

@<SCITEGIC>MOL_PROPERTY
Delta G
SciTegic.value.DoubleValue
6.574

@<SCITEGIC>MOL_PROPERTY
G
SciTegic.value.DoubleValue
30.286

@<SCITEGIC>MOL_PROPERTY
E
SciTegic.value.DoubleValue
-3.096

@<SCITEGIC>MOL_PROPERTY
-TS
SciTegic.value.DoubleValue
33.382

@<SCITEGIC>MOL_PROPERTY
U+W
SciTegic.value.DoubleValue
-24.558

@<SCITEGIC>MOL_PROPERTY
U
SciTegic.value.DoubleValue
29.944

@<SCITEGIC>MOL_PROPERTY
W
SciTegic.value.DoubleValue
-54.502

@<SCITEGIC>MOL_PROPERTY
W(PB)
SciTegic.value.DoubleValue
-56.699

@<SCITEGIC>MOL_PROPERTY
W(SA)
SciTegic.value.DoubleValue
2.197

@<SCITEGIC>MOL_PROPERTY
Valence
SciTegic.value.DoubleValue
8.447

@<SCITEGIC>MOL_PROPERTY
Coulomb
SciTegic.value.DoubleValue
20.857

@<SCITEGIC>MOL_PROPERTY
VdW
SciTegic.value.DoubleValue
0.639

@<SCITEGIC>MOL_PROPERTY
VdW6
SciTegic.value.DoubleValue
-10.247

@<SCITEGIC>MOL_PROPERTY
VdW12
SciTegic.value.DoubleValue
10.886

@<SCITEGIC>MOL_PROPERTY
Bond
SciTegic.value.DoubleValue
0.318

@<SCITEGIC>MOL_PROPERTY
Angle
SciTegic.value.DoubleValue
2.793

@<SCITEGIC>MOL_PROPERTY
Pdih
SciTegic.value.DoubleValue
5.337

@<SCITEGIC>MOL_PROPERTY
Idih
SciTegic.value.DoubleValue
0.000

@<SCITEGIC>MOL_PROPERTY
Tether
SciTegic.value.DoubleValue
0.000

@<TRIPOS>MOLECULE
guest-s13_vm2.mol2 : vm2 ligand conformer 86
          26          25           1
SMALL
USER_CHARGES
 
@<TRIPOS>ATOM
       1    C1      21.442340   18.096494   20.336044 C.3        1 MOL1        -0.2398
       2    H1      20.936839   17.884739   19.384712 H          1 MOL1         0.0972
       3    H2      22.484077   18.360063   20.111283 H          1 MOL1         0.0972
       4    H3      21.449417   17.173908   20.930678 H          1 MOL1         0.0972
       5    C2      20.740963   19.244964   21.091217 C.3        1 MOL1        -0.1383
       6    H4      20.783890   20.157747   20.480327 H          1 MOL1         0.0961
       7    H5      21.296069   19.471792   22.009294 H          1 MOL1         0.0961
       8    C3      19.261398   18.907985   21.398745 C.3        1 MOL1        -0.1407
       9    H6      18.721968   18.861190   20.442374 H          1 MOL1         0.0961
      10    H7      19.163161   17.907116   21.839425 H          1 MOL1         0.0961
      11    C4      18.571910   19.962861   22.301287 C.3        1 MOL1        -0.1407
      12    H8      17.536817   20.081634   21.952002 H          1 MOL1         0.0961
      13    H9      19.041914   20.946207   22.161048 H          1 MOL1         0.0961
      14    C5      18.511923   19.616180   23.814482 C.3        1 MOL1        -0.1472
      15    H10     17.935138   20.412486   24.303679 H          1 MOL1         0.0961
      16    H11     17.933388   18.695179   23.965282 H          1 MOL1         0.0961
      17    C6      19.881403   19.493008   24.522712 C.3        1 MOL1         0.1190
      18    H12     20.539171   20.280512   24.142417 H          1 MOL1         0.0923
      19    C7      19.721245   19.689937   26.039204 C.3        1 MOL1        -0.2463
      20    H13     19.303578   20.679490   26.263012 H          1 MOL1         0.0972
      21    H14     20.692041   19.618756   26.545099 H          1 MOL1         0.0972
      22    H15     19.054728   18.932002   26.469648 H          1 MOL1         0.0972
      23    N1      20.556818   18.176572   24.250309 N.4        1 MOL1        -0.5974
      24    H16     20.007771   17.394476   24.617113 H          1 MOL1         0.3625
      25    H17     20.676594   18.028475   23.243693 H          1 MOL1         0.3625
      26    H18     21.482459   18.132895   24.686386 H          1 MOL1         0.3625
@<TRIPOS>BOND
    1     1     2    1
    2     1     3    1
    3     1     4    1
    4     1     5    1
    5     5     6    1
    6     5     7    1
    7     5     8    1
    8     8     9    1
    9     8    10    1
   10     8    11    1
   11    11    12    1
   12    11    13    1
   13    11    14    1
   14    14    15    1
   15    14    16    1
   16    14    17    1
   17    17    18    1
   18    17    19    1
   19    19    20    1
   20    19    21    1
   21    19    22    1
   22    17    23    1
   23    23    24    1
   24    23    25    1
   25    23    26    1
@<TRIPOS>SUBSTRUCTURE
       1 MOL1            1 RESIDUE      1      MOL     
@<SCITEGIC>MOL_PROPERTY
VM2 Rank
SciTegic.value.IntegerValue
86

@<SCITEGIC>MOL_PROPERTY
Conf_Id
SciTegic.value.IntegerValue
294

@<SCITEGIC>MOL_PROPERTY
Probability
SciTegic.value.DoubleValue
0.00

@<SCITEGIC>MOL_PROPERTY
Sum Probability
SciTegic.value.DoubleValue
100.00

@<SCITEGIC>MOL_PROPERTY
Delta G
SciTegic.value.DoubleValue
7.070

@<SCITEGIC>MOL_PROPERTY
G
SciTegic.value.DoubleValue
30.782

@<SCITEGIC>MOL_PROPERTY
E
SciTegic.value.DoubleValue
-2.479

@<SCITEGIC>MOL_PROPERTY
-TS
SciTegic.value.DoubleValue
33.261

@<SCITEGIC>MOL_PROPERTY
U+W
SciTegic.value.DoubleValue
-23.941

@<SCITEGIC>MOL_PROPERTY
U
SciTegic.value.DoubleValue
28.934

@<SCITEGIC>MOL_PROPERTY
W
SciTegic.value.DoubleValue
-52.876

@<SCITEGIC>MOL_PROPERTY
W(PB)
SciTegic.value.DoubleValue
-55.146

@<SCITEGIC>MOL_PROPERTY
W(SA)
SciTegic.value.DoubleValue
2.271

@<SCITEGIC>MOL_PROPERTY
Valence
SciTegic.value.DoubleValue
7.029

@<SCITEGIC>MOL_PROPERTY
Coulomb
SciTegic.value.DoubleValue
21.124

@<SCITEGIC>MOL_PROPERTY
VdW
SciTegic.value.DoubleValue
0.781

@<SCITEGIC>MOL_PROPERTY
VdW6
SciTegic.value.DoubleValue
-9.551

@<SCITEGIC>MOL_PROPERTY
VdW12
SciTegic.value.DoubleValue
10.332

@<SCITEGIC>MOL_PROPERTY
Bond
SciTegic.value.DoubleValue
0.264

@<SCITEGIC>MOL_PROPERTY
Angle
SciTegic.value.DoubleValue
2.108

@<SCITEGIC>MOL_PROPERTY
Pdih
SciTegic.value.DoubleValue
4.657

@<SCITEGIC>MOL_PROPERTY
Idih
SciTegic.value.DoubleValue
0.000

@<SCITEGIC>MOL_PROPERTY
Tether
SciTegic.value.DoubleValue
0.000

@<TRIPOS>MOLECULE
guest-s13_vm2.mol2 : vm2 ligand conformer 87
          26          25           1
SMALL
USER_CHARGES
 
@<TRIPOS>ATOM
       1    C1      20.917768   19.575254   19.955594 C.3        1 MOL1        -0.2398
       2    H1      20.247080   20.435669   20.068926 H          1 MOL1         0.0972
       3    H2      21.910240   19.961523   19.689576 H          1 MOL1         0.0972
       4    H3      20.557821   18.970888   19.112844 H          1 MOL1         0.0972
       5    C2      20.993596   18.734037   21.250221 C.3        1 MOL1        -0.1383
       6    H4      21.381036   19.361536   22.062102 H          1 MOL1         0.0961
       7    H5      21.727275   17.929611   21.099774 H          1 MOL1         0.0961
       8    C3      19.630994   18.102757   21.637653 C.3        1 MOL1        -0.1407
       9    H6      19.205840   17.631316   20.740630 H          1 MOL1         0.0961
      10    H7      19.779233   17.278929   22.348134 H          1 MOL1         0.0961
      11    C4      18.597548   19.110865   22.207927 C.3        1 MOL1        -0.1407
      12    H8      17.605466   18.823116   21.833345 H          1 MOL1         0.0961
      13    H9      18.777536   20.117362   21.809146 H          1 MOL1         0.0961
      14    C5      18.505169   19.174760   23.756968 C.3        1 MOL1        -0.1472
      15    H10     17.680203   19.857430   24.000878 H          1 MOL1         0.0961
      16    H11     18.208805   18.196234   24.157345 H          1 MOL1         0.0961
      17    C6      19.783005   19.668852   24.474287 C.3        1 MOL1         0.1190
      18    H12     20.224300   20.473742   23.878512 H          1 MOL1         0.0923
      19    C7      19.437051   20.231147   25.862973 C.3        1 MOL1        -0.2463
      20    H13     18.973752   19.464948   26.497235 H          1 MOL1         0.0972
      21    H14     18.740036   21.074454   25.780735 H          1 MOL1         0.0972
      22    H15     20.338726   20.595863   26.370327 H          1 MOL1         0.0972
      23    N1      20.822869   18.590328   24.608376 N.4        1 MOL1        -0.5974
      24    H16     20.486459   17.820896   25.193523 H          1 MOL1         0.3625
      25    H17     21.067464   18.200852   23.693912 H          1 MOL1         0.3625
      26    H18     21.681405   18.948372   25.036740 H          1 MOL1         0.3625
@<TRIPOS>BOND
    1     1     2    1
    2     1     3    1
    3     1     4    1
    4     1     5    1
    5     5     6    1
    6     5     7    1
    7     5     8    1
    8     8     9    1
    9     8    10    1
   10     8    11    1
   11    11    12    1
   12    11    13    1
   13    11    14    1
   14    14    15    1
   15    14    16    1
   16    14    17    1
   17    17    18    1
   18    17    19    1
   19    19    20    1
   20    19    21    1
   21    19    22    1
   22    17    23    1
   23    23    24    1
   24    23    25    1
   25    23    26    1
@<TRIPOS>SUBSTRUCTURE
       1 MOL1            1 RESIDUE      1      MOL     
@<SCITEGIC>MOL_PROPERTY
VM2 Rank
SciTegic.value.IntegerValue
87

@<SCITEGIC>MOL_PROPERTY
Conf_Id
SciTegic.value.IntegerValue
250

@<SCITEGIC>MOL_PROPERTY
Probability
SciTegic.value.DoubleValue
0.00

@<SCITEGIC>MOL_PROPERTY
Sum Probability
SciTegic.value.DoubleValue
100.00

@<SCITEGIC>MOL_PROPERTY
Delta G
SciTegic.value.DoubleValue
7.299

@<SCITEGIC>MOL_PROPERTY
G
SciTegic.value.DoubleValue
31.011

@<SCITEGIC>MOL_PROPERTY
E
SciTegic.value.DoubleValue
-2.223

@<SCITEGIC>MOL_PROPERTY
-TS
SciTegic.value.DoubleValue
33.234

@<SCITEGIC>MOL_PROPERTY
U+W
SciTegic.value.DoubleValue
-23.685

@<SCITEGIC>MOL_PROPERTY
U
SciTegic.value.DoubleValue
30.033

@<SCITEGIC>MOL_PROPERTY
W
SciTegic.value.DoubleValue
-53.718

@<SCITEGIC>MOL_PROPERTY
W(PB)
SciTegic.value.DoubleValue
-55.957

@<SCITEGIC>MOL_PROPERTY
W(SA)
SciTegic.value.DoubleValue
2.239

@<SCITEGIC>MOL_PROPERTY
Valence
SciTegic.value.DoubleValue
7.747

@<SCITEGIC>MOL_PROPERTY
Coulomb
SciTegic.value.DoubleValue
21.341

@<SCITEGIC>MOL_PROPERTY
VdW
SciTegic.value.DoubleValue
0.945

@<SCITEGIC>MOL_PROPERTY
VdW6
SciTegic.value.DoubleValue
-9.749

@<SCITEGIC>MOL_PROPERTY
VdW12
SciTegic.value.DoubleValue
10.694

@<SCITEGIC>MOL_PROPERTY
Bond
SciTegic.value.DoubleValue
0.311

@<SCITEGIC>MOL_PROPERTY
Angle
SciTegic.value.DoubleValue
2.246

@<SCITEGIC>MOL_PROPERTY
Pdih
SciTegic.value.DoubleValue
5.191

@<SCITEGIC>MOL_PROPERTY
Idih
SciTegic.value.DoubleValue
0.000

@<SCITEGIC>MOL_PROPERTY
Tether
SciTegic.value.DoubleValue
0.000

@<TRIPOS>MOLECULE
guest-s13_vm2.mol2 : vm2 ligand conformer 88
          26          25           1
SMALL
USER_CHARGES
 
@<TRIPOS>ATOM
       1    C1      20.464705   17.630790   20.229979 C.3        1 MOL1        -0.2398
       2    H1      19.893597   16.759425   19.883952 H          1 MOL1         0.0972
       3    H2      20.803789   18.183536   19.344052 H          1 MOL1         0.0972
       4    H3      21.351514   17.262632   20.762019 H          1 MOL1         0.0972
       5    C2      19.597120   18.524050   21.141213 C.3        1 MOL1        -0.1383
       6    H4      19.233101   17.930684   21.987359 H          1 MOL1         0.0961
       7    H5      18.704292   18.846572   20.587109 H          1 MOL1         0.0961
       8    C3      20.375853   19.770323   21.626787 C.3        1 MOL1        -0.1407
       9    H6      21.344367   19.484948   22.058136 H          1 MOL1         0.0961
      10    H7      20.617851   20.380439   20.745297 H          1 MOL1         0.0961
      11    C4      19.574723   20.647457   22.624731 C.3        1 MOL1        -0.1407
      12    H8      18.496582   20.465024   22.524802 H          1 MOL1         0.0961
      13    H9      19.712380   21.696024   22.326410 H          1 MOL1         0.0961
      14    C5      20.018972   20.537113   24.112370 C.3        1 MOL1        -0.1472
      15    H10     21.087076   20.779199   24.188920 H          1 MOL1         0.0961
      16    H11     19.503301   21.325703   24.676158 H          1 MOL1         0.0961
      17    C6      19.755760   19.196277   24.841764 C.3        1 MOL1         0.1190
      18    H12     20.034109   19.345522   25.889622 H          1 MOL1         0.0923
      19    C7      18.267583   18.804531   24.822761 C.3        1 MOL1        -0.2463
      20    H13     17.915894   18.572788   23.811659 H          1 MOL1         0.0972
      21    H14     17.648513   19.618227   25.220401 H          1 MOL1         0.0972
      22    H15     18.095223   17.920711   25.449032 H          1 MOL1         0.0972
      23    N1      20.633283   18.077458   24.354395 N.4        1 MOL1        -0.5974
      24    H16     21.624276   18.292879   24.496589 H          1 MOL1         0.3625
      25    H17     20.436124   17.202831   24.849228 H          1 MOL1         0.3625
      26    H18     20.494599   17.914140   23.353853 H          1 MOL1         0.3625
@<TRIPOS>BOND
    1     1     2    1
    2     1     3    1
    3     1     4    1
    4     1     5    1
    5     5     6    1
    6     5     7    1
    7     5     8    1
    8     8     9    1
    9     8    10    1
   10     8    11    1
   11    11    12    1
   12    11    13    1
   13    11    14    1
   14    14    15    1
   15    14    16    1
   16    14    17    1
   17    17    18    1
   18    17    19    1
   19    19    20    1
   20    19    21    1
   21    19    22    1
   22    17    23    1
   23    23    24    1
   24    23    25    1
   25    23    26    1
@<TRIPOS>SUBSTRUCTURE
       1 MOL1            1 RESIDUE      1      MOL     
@<SCITEGIC>MOL_PROPERTY
VM2 Rank
SciTegic.value.IntegerValue
88

@<SCITEGIC>MOL_PROPERTY
Conf_Id
SciTegic.value.IntegerValue
217

@<SCITEGIC>MOL_PROPERTY
Probability
SciTegic.value.DoubleValue
0.00

@<SCITEGIC>MOL_PROPERTY
Sum Probability
SciTegic.value.DoubleValue
100.00

@<SCITEGIC>MOL_PROPERTY
Delta G
SciTegic.value.DoubleValue
7.753

@<SCITEGIC>MOL_PROPERTY
G
SciTegic.value.DoubleValue
31.465

@<SCITEGIC>MOL_PROPERTY
E
SciTegic.value.DoubleValue
-2.236

@<SCITEGIC>MOL_PROPERTY
-TS
SciTegic.value.DoubleValue
33.701

@<SCITEGIC>MOL_PROPERTY
U+W
SciTegic.value.DoubleValue
-23.698

@<SCITEGIC>MOL_PROPERTY
U
SciTegic.value.DoubleValue
29.525

@<SCITEGIC>MOL_PROPERTY
W
SciTegic.value.DoubleValue
-53.223

@<SCITEGIC>MOL_PROPERTY
W(PB)
SciTegic.value.DoubleValue
-55.434

@<SCITEGIC>MOL_PROPERTY
W(SA)
SciTegic.value.DoubleValue
2.211

@<SCITEGIC>MOL_PROPERTY
Valence
SciTegic.value.DoubleValue
7.633

@<SCITEGIC>MOL_PROPERTY
Coulomb
SciTegic.value.DoubleValue
21.336

@<SCITEGIC>MOL_PROPERTY
VdW
SciTegic.value.DoubleValue
0.556

@<SCITEGIC>MOL_PROPERTY
VdW6
SciTegic.value.DoubleValue
-10.325

@<SCITEGIC>MOL_PROPERTY
VdW12
SciTegic.value.DoubleValue
10.881

@<SCITEGIC>MOL_PROPERTY
Bond
SciTegic.value.DoubleValue
0.326

@<SCITEGIC>MOL_PROPERTY
Angle
SciTegic.value.DoubleValue
2.670

@<SCITEGIC>MOL_PROPERTY
Pdih
SciTegic.value.DoubleValue
4.636

@<SCITEGIC>MOL_PROPERTY
Idih
SciTegic.value.DoubleValue
0.000

@<SCITEGIC>MOL_PROPERTY
Tether
SciTegic.value.DoubleValue
0.000

@<TRIPOS>MOLECULE
guest-s13_vm2.mol2 : vm2 ligand conformer 89
          26          25           1
SMALL
USER_CHARGES
 
@<TRIPOS>ATOM
       1    C1      18.674538   19.119429   20.593814 C.3        1 MOL1        -0.2398
       2    H1      18.312333   19.371522   19.588769 H          1 MOL1         0.0972
       3    H2      18.108558   18.245222   20.939662 H          1 MOL1         0.0972
       4    H3      18.437249   19.965742   21.244967 H          1 MOL1         0.0972
       5    C2      20.190051   18.822393   20.557156 C.3        1 MOL1        -0.1383
       6    H4      20.739761   19.707552   20.208451 H          1 MOL1         0.0961
       7    H5      20.357899   18.047202   19.796328 H          1 MOL1         0.0961
       8    C3      20.782131   18.316161   21.899049 C.3        1 MOL1        -0.1407
       9    H6      20.089553   17.634380   22.403651 H          1 MOL1         0.0961
      10    H7      21.652279   17.694059   21.647307 H          1 MOL1         0.0961
      11    C4      21.295497   19.424619   22.857202 C.3        1 MOL1        -0.1407
      12    H8      21.949739   20.094923   22.283070 H          1 MOL1         0.0961
      13    H9      21.957945   18.962160   23.600578 H          1 MOL1         0.0961
      14    C5      20.239923   20.297624   23.597254 C.3        1 MOL1        -0.1472
      15    H10     20.798199   21.083877   24.121951 H          1 MOL1         0.0961
      16    H11     19.615370   20.840055   22.879764 H          1 MOL1         0.0961
      17    C6      19.354748   19.604072   24.667398 C.3        1 MOL1         0.1190
      18    H12     19.051958   20.385716   25.371040 H          1 MOL1         0.0923
      19    C7      18.053752   19.017550   24.093247 C.3        1 MOL1        -0.2463
      20    H13     17.403202   18.670102   24.905109 H          1 MOL1         0.0972
      21    H14     18.237691   18.166440   23.432139 H          1 MOL1         0.0972
      22    H15     17.497387   19.777907   23.532077 H          1 MOL1         0.0972
      23    N1      20.097359   18.586152   25.488880 N.4        1 MOL1        -0.5974
      24    H16     20.423443   17.811077   24.906286 H          1 MOL1         0.3625
      25    H17     20.917297   18.998239   25.942925 H          1 MOL1         0.3625
      26    H18     19.504063   18.192884   26.224828 H          1 MOL1         0.3625
@<TRIPOS>BOND
    1     1     2    1
    2     1     3    1
    3     1     4    1
    4     1     5    1
    5     5     6    1
    6     5     7    1
    7     5     8    1
    8     8     9    1
    9     8    10    1
   10     8    11    1
   11    11    12    1
   12    11    13    1
   13    11    14    1
   14    14    15    1
   15    14    16    1
   16    14    17    1
   17    17    18    1
   18    17    19    1
   19    19    20    1
   20    19    21    1
   21    19    22    1
   22    17    23    1
   23    23    24    1
   24    23    25    1
   25    23    26    1
@<TRIPOS>SUBSTRUCTURE
       1 MOL1            1 RESIDUE      1      MOL     
@<SCITEGIC>MOL_PROPERTY
VM2 Rank
SciTegic.value.IntegerValue
89

@<SCITEGIC>MOL_PROPERTY
Conf_Id
SciTegic.value.IntegerValue
1107

@<SCITEGIC>MOL_PROPERTY
Probability
SciTegic.value.DoubleValue
0.00

@<SCITEGIC>MOL_PROPERTY
Sum Probability
SciTegic.value.DoubleValue
100.00

@<SCITEGIC>MOL_PROPERTY
Delta G
SciTegic.value.DoubleValue
8.109

@<SCITEGIC>MOL_PROPERTY
G
SciTegic.value.DoubleValue
31.821

@<SCITEGIC>MOL_PROPERTY
E
SciTegic.value.DoubleValue
-1.879

@<SCITEGIC>MOL_PROPERTY
-TS
SciTegic.value.DoubleValue
33.700

@<SCITEGIC>MOL_PROPERTY
U+W
SciTegic.value.DoubleValue
-23.341

@<SCITEGIC>MOL_PROPERTY
U
SciTegic.value.DoubleValue
31.153

@<SCITEGIC>MOL_PROPERTY
W
SciTegic.value.DoubleValue
-54.493

@<SCITEGIC>MOL_PROPERTY
W(PB)
SciTegic.value.DoubleValue
-56.633

@<SCITEGIC>MOL_PROPERTY
W(SA)
SciTegic.value.DoubleValue
2.139

@<SCITEGIC>MOL_PROPERTY
Valence
SciTegic.value.DoubleValue
9.824

@<SCITEGIC>MOL_PROPERTY
Coulomb
SciTegic.value.DoubleValue
20.755

@<SCITEGIC>MOL_PROPERTY
VdW
SciTegic.value.DoubleValue
0.573

@<SCITEGIC>MOL_PROPERTY
VdW6
SciTegic.value.DoubleValue
-10.636

@<SCITEGIC>MOL_PROPERTY
VdW12
SciTegic.value.DoubleValue
11.209

@<SCITEGIC>MOL_PROPERTY
Bond
SciTegic.value.DoubleValue
0.409

@<SCITEGIC>MOL_PROPERTY
Angle
SciTegic.value.DoubleValue
4.447

@<SCITEGIC>MOL_PROPERTY
Pdih
SciTegic.value.DoubleValue
4.968

@<SCITEGIC>MOL_PROPERTY
Idih
SciTegic.value.DoubleValue
0.000

@<SCITEGIC>MOL_PROPERTY
Tether
SciTegic.value.DoubleValue
0.000

@<TRIPOS>MOLECULE
guest-s13_vm2.mol2 : vm2 ligand conformer 90
          26          25           1
SMALL
USER_CHARGES
 
@<TRIPOS>ATOM
       1    C1      21.406583   18.222141   21.100667 C.3        1 MOL1        -0.2398
       2    H1      21.250872   17.224889   21.531080 H          1 MOL1         0.0972
       3    H2      22.124543   18.115619   20.277094 H          1 MOL1         0.0972
       4    H3      21.875442   18.862188   21.853926 H          1 MOL1         0.0972
       5    C2      20.080938   18.817504   20.575699 C.3        1 MOL1        -0.1383
       6    H4      19.743551   18.189444   19.739183 H          1 MOL1         0.0961
       7    H5      20.258349   19.814075   20.148158 H          1 MOL1         0.0961
       8    C3      18.937410   18.879284   21.622354 C.3        1 MOL1        -0.1407
       9    H6      17.992069   18.825417   21.064624 H          1 MOL1         0.0961
      10    H7      18.935202   17.987427   22.258492 H          1 MOL1         0.0961
      11    C4      18.877598   20.183023   22.464343 C.3        1 MOL1        -0.1407
      12    H8      17.896108   20.235520   22.953626 H          1 MOL1         0.0961
      13    H9      18.891730   21.038357   21.775073 H          1 MOL1         0.0961
      14    C5      19.984726   20.404438   23.535079 C.3        1 MOL1        -0.1472
      15    H10     20.966219   20.474285   23.054244 H          1 MOL1         0.0961
      16    H11     19.818400   21.398639   23.970216 H          1 MOL1         0.0961
      17    C6      20.048856   19.400818   24.716094 C.3        1 MOL1         0.1190
      18    H12     20.717778   19.836764   25.464567 H          1 MOL1         0.0923
      19    C7      18.680929   19.197230   25.390341 C.3        1 MOL1        -0.2463
      20    H13     18.234244   20.161198   25.663767 H          1 MOL1         0.0972
      21    H14     18.789686   18.608473   26.309372 H          1 MOL1         0.0972
      22    H15     17.981556   18.666345   24.733336 H          1 MOL1         0.0972
      23    N1      20.670960   18.083562   24.349423 N.4        1 MOL1        -0.5974
      24    H16     21.626234   18.206216   24.002840 H          1 MOL1         0.3625
      25    H17     20.714636   17.453558   25.155600 H          1 MOL1         0.3625
      26    H18     20.134260   17.616294   23.615713 H          1 MOL1         0.3625
@<TRIPOS>BOND
    1     1     2    1
    2     1     3    1
    3     1     4    1
    4     1     5    1
    5     5     6    1
    6     5     7    1
    7     5     8    1
    8     8     9    1
    9     8    10    1
   10     8    11    1
   11    11    12    1
   12    11    13    1
   13    11    14    1
   14    14    15    1
   15    14    16    1
   16    14    17    1
   17    17    18    1
   18    17    19    1
   19    19    20    1
   20    19    21    1
   21    19    22    1
   22    17    23    1
   23    23    24    1
   24    23    25    1
   25    23    26    1
@<TRIPOS>SUBSTRUCTURE
       1 MOL1            1 RESIDUE      1      MOL     
@<SCITEGIC>MOL_PROPERTY
VM2 Rank
SciTegic.value.IntegerValue
90

@<SCITEGIC>MOL_PROPERTY
Conf_Id
SciTegic.value.IntegerValue
736

@<SCITEGIC>MOL_PROPERTY
Probability
SciTegic.value.DoubleValue
0.00

@<SCITEGIC>MOL_PROPERTY
Sum Probability
SciTegic.value.DoubleValue
100.00

@<SCITEGIC>MOL_PROPERTY
Delta G
SciTegic.value.DoubleValue
8.469

@<SCITEGIC>MOL_PROPERTY
G
SciTegic.value.DoubleValue
32.181

@<SCITEGIC>MOL_PROPERTY
E
SciTegic.value.DoubleValue
-1.491

@<SCITEGIC>MOL_PROPERTY
-TS
SciTegic.value.DoubleValue
33.672

@<SCITEGIC>MOL_PROPERTY
U+W
SciTegic.value.DoubleValue
-22.953

@<SCITEGIC>MOL_PROPERTY
U
SciTegic.value.DoubleValue
30.633

@<SCITEGIC>MOL_PROPERTY
W
SciTegic.value.DoubleValue
-53.587

@<SCITEGIC>MOL_PROPERTY
W(PB)
SciTegic.value.DoubleValue
-55.728

@<SCITEGIC>MOL_PROPERTY
W(SA)
SciTegic.value.DoubleValue
2.141

@<SCITEGIC>MOL_PROPERTY
Valence
SciTegic.value.DoubleValue
8.256

@<SCITEGIC>MOL_PROPERTY
Coulomb
SciTegic.value.DoubleValue
21.994

@<SCITEGIC>MOL_PROPERTY
VdW
SciTegic.value.DoubleValue
0.384

@<SCITEGIC>MOL_PROPERTY
VdW6
SciTegic.value.DoubleValue
-10.991

@<SCITEGIC>MOL_PROPERTY
VdW12
SciTegic.value.DoubleValue
11.375

@<SCITEGIC>MOL_PROPERTY
Bond
SciTegic.value.DoubleValue
0.404

@<SCITEGIC>MOL_PROPERTY
Angle
SciTegic.value.DoubleValue
4.023

@<SCITEGIC>MOL_PROPERTY
Pdih
SciTegic.value.DoubleValue
3.829

@<SCITEGIC>MOL_PROPERTY
Idih
SciTegic.value.DoubleValue
0.000

@<SCITEGIC>MOL_PROPERTY
Tether
SciTegic.value.DoubleValue
0.000

