@<TRIPOS>MOLECULE
CD_guest-6_fast_vm2_single.mol2 : feprocess host+ligand conformer 1
         139         144           2
SMALL
USER_CHARGES
 
@<TRIPOS>ATOM
       1    C1      16.257673   15.065832   21.791479 C.3        1 MOL1         0.2972
       2    H1      15.191869   14.913211   22.004713 H          1 MOL1         0.0751
       3    O1      16.597271   16.464024   21.739072 O.3        1 MOL1        -0.3740
       4    C2      17.111734   14.403878   22.897130 C.3        1 MOL1         0.1003
       5    H2      16.899896   13.326917   22.877593 H          1 MOL1         0.0783
       6    O2      16.759967   14.932046   24.186064 O.3        1 MOL1        -0.5519
       7    H3      16.407657   15.843973   24.036042 H          1 MOL1         0.3769
       8    C3      18.620465   14.597400   22.619205 C.3        1 MOL1         0.1053
       9    H4      18.859334   15.661868   22.748650 H          1 MOL1         0.0783
      10    O3      19.369041   13.819779   23.559229 O.3        1 MOL1        -0.5519
      11    H5      19.018451   14.084115   24.438697 H          1 MOL1         0.3769
      12    C4      18.995881   14.183320   21.171841 C.3        1 MOL1         0.1018
      13    H6      19.077167   13.089203   21.126991 H          1 MOL1         0.0783
      14    C5      17.986760   14.694984   20.103468 C.3        1 MOL1         0.1043
      15    H7      18.152361   15.773504   19.984706 H          1 MOL1         0.0783
      16    O4      16.617374   14.471485   20.528237 O.3        1 MOL1        -0.3740
      17    C6      18.180756   14.051203   18.710044 C.3        1 MOL1         0.0138
      18    H8      19.116961   14.430809   18.278564 H          1 MOL1         0.0794
      19    H9      17.362915   14.379957   18.054782 H          1 MOL1         0.0794
      20    O5      18.221499   12.620397   18.777377 O.3        1 MOL1        -0.5486
      21    H10     18.269680   12.279866   17.857494 H          1 MOL1         0.3769
      22    C7      14.812609   20.216917   21.406100 C.3        1 MOL1         0.2972
      23    H11     14.093188   21.032702   21.261223 H          1 MOL1         0.0751
      24    O6      16.150641   20.712562   21.600547 O.3        1 MOL1        -0.3740
      25    C8      14.436066   19.404557   22.670247 C.3        1 MOL1         0.1003
      26    H12     13.423639   19.007541   22.520441 H          1 MOL1         0.0783
      27    O7      14.447675   20.250392   23.831672 O.3        1 MOL1        -0.5519
      28    H13     15.157927   20.925401   23.689835 H          1 MOL1         0.3769
      29    C9      15.396873   18.206950   22.862393 C.3        1 MOL1         0.1053
      30    H14     16.395536   18.599395   23.099346 H          1 MOL1         0.0783
      31    O8      14.931220   17.386745   23.939085 O.3        1 MOL1        -0.5519
      32    H15     14.705273   18.016795   24.659467 H          1 MOL1         0.3769
      33    C10     15.496749   17.371586   21.563535 C.3        1 MOL1         0.1018
      34    H16     14.545348   16.845337   21.410245 H          1 MOL1         0.0783
      35    C11     15.792427   18.257997   20.322549 C.3        1 MOL1         0.1043
      36    H17     16.792636   18.689054   20.439602 H          1 MOL1         0.0783
      37    O9      14.816407   19.329191   20.265353 O.3        1 MOL1        -0.3740
      38    C12     15.792120   17.502976   18.967934 C.3        1 MOL1         0.0138
      39    H18     16.807877   17.134278   18.776843 H          1 MOL1         0.0794
      40    H19     15.559597   18.218652   18.168228 H          1 MOL1         0.0794
      41    O10     14.870944   16.406748   18.929184 O.3        1 MOL1        -0.5486
      42    H20     15.282276   15.667426   19.434727 H          1 MOL1         0.3769
      43    C13     18.510729   24.075795   20.850070 C.3        1 MOL1         0.2972
      44    H21     18.858444   25.076037   20.564281 H          1 MOL1         0.0751
      45    O11     19.606022   23.198495   21.174773 O.3        1 MOL1        -0.3740
      46    C14     17.576768   24.160897   22.085298 C.3        1 MOL1         0.1003
      47    H22     16.718366   24.784151   21.802795 H          1 MOL1         0.0783
      48    O12     18.243348   24.767677   23.202935 O.3        1 MOL1        -0.5519
      49    H23     19.162146   24.397632   23.238139 H          1 MOL1         0.3769
      50    C15     17.038492   22.759399   22.462160 C.3        1 MOL1         0.1053
      51    H24     17.882282   22.137598   22.794818 H          1 MOL1         0.0783
      52    O13     16.076029   22.882902   23.515555 O.3        1 MOL1        -0.5519
      53    H25     16.492091   23.488160   24.169220 H          1 MOL1         0.3769
      54    C16     16.385341   22.083375   21.233336 C.3        1 MOL1         0.1018
      55    H26     15.452488   22.615646   21.006283 H          1 MOL1         0.0783
      56    C17     17.317642   22.116082   19.990329 C.3        1 MOL1         0.1043
      57    H27     18.186452   21.478104   20.196477 H          1 MOL1         0.0783
      58    O14     17.765911   23.477065   19.767516 O.3        1 MOL1        -0.3740
      59    C18     16.666266   21.599144   18.682347 C.3        1 MOL1         0.0138
      60    H28     16.708744   20.503539   18.677586 H          1 MOL1         0.0794
      61    H29     17.269156   21.946148   17.832707 H          1 MOL1         0.0794
      62    O15     15.306349   22.019738   18.526827 O.3        1 MOL1        -0.5486
      63    H30     14.747563   21.333180   18.953429 H          1 MOL1         0.3769
      64    C19     23.724064   22.783082   21.136883 C.3        1 MOL1         0.2972
      65    H31     24.811868   22.901323   21.051558 H          1 MOL1         0.0751
      66    O16     23.356881   21.392441   21.258127 O.3        1 MOL1        -0.3740
      67    C20     23.161847   23.599819   22.332236 C.3        1 MOL1         0.1003
      68    H32     23.355384   24.657758   22.111881 H          1 MOL1         0.0783
      69    O17     23.804191   23.270470   23.572579 O.3        1 MOL1        -0.5519
      70    H33     23.539499   22.341070   23.790043 H          1 MOL1         0.3769
      71    C21     21.628570   23.415123   22.437973 C.3        1 MOL1         0.1053
      72    H34     21.416149   22.364819   22.683245 H          1 MOL1         0.0783
      73    O18     21.121969   24.269347   23.468508 O.3        1 MOL1        -0.5519
      74    H35     21.730766   24.141540   24.229788 H          1 MOL1         0.3769
      75    C22     20.935127   23.747549   21.093180 C.3        1 MOL1         0.1018
      76    H36     20.926649   24.838387   20.972683 H          1 MOL1         0.0783
      77    C23     21.643232   23.087507   19.874651 C.3        1 MOL1         0.1043
      78    H37     21.440066   22.010212   19.902504 H          1 MOL1         0.0783
      79    O19     23.077355   23.297119   19.951958 O.3        1 MOL1        -0.3740
      80    C24     21.142365   23.600652   18.502595 C.3        1 MOL1         0.0138
      81    H38     20.121634   23.229436   18.338145 H          1 MOL1         0.0794
      82    H39     21.774634   23.161157   17.719799 H          1 MOL1         0.0794
      83    O20     21.166006   25.030437   18.403898 O.3        1 MOL1        -0.5486
      84    H40     20.332668   25.371352   18.790353 H          1 MOL1         0.3769
      85    C25     24.559628   17.628284   22.432667 C.3        1 MOL1         0.2972
      86    H41     25.054391   16.734030   22.828502 H          1 MOL1         0.0751
      87    O21     23.423123   17.301073   21.607484 O.3        1 MOL1        -0.3740
      88    C26     24.065013   18.524960   23.594262 C.3        1 MOL1         0.1003
      89    H42     24.950782   18.877651   24.137547 H          1 MOL1         0.0783
      90    O22     23.234001   17.780120   24.498660 O.3        1 MOL1        -0.5519
      91    H43     22.343657   17.668146   24.064642 H          1 MOL1         0.3769
      92    C27     23.330506   19.760398   23.018201 C.3        1 MOL1         0.1053
      93    H44     22.466476   19.404611   22.450761 H          1 MOL1         0.0783
      94    O23     22.870802   20.615353   24.069921 O.3        1 MOL1        -0.5519
      95    H45     21.947206   20.293251   24.257085 H          1 MOL1         0.3769
      96    C28     24.230554   20.532399   22.020553 C.3        1 MOL1         0.1018
      97    H46     24.987035   21.096108   22.581703 H          1 MOL1         0.0783
      98    C29     24.919533   19.586024   20.993554 C.3        1 MOL1         0.1043
      99    H47     24.153427   19.257141   20.281247 H          1 MOL1         0.0783
     100    O24     25.480610   18.416367   21.645959 O.3        1 MOL1        -0.3740
     101    C30     26.035798   20.276165   20.174078 C.3        1 MOL1         0.0138
     102    H48     25.568710   20.992245   19.484435 H          1 MOL1         0.0794
     103    H49     26.542278   19.517354   19.562687 H          1 MOL1         0.0794
     104    O25     26.980793   20.954117   21.011393 O.3        1 MOL1        -0.5486
     105    H50     27.696355   21.299842   20.434178 H          1 MOL1         0.3769
     106    C31     21.283807   14.047217   20.267351 C.3        1 MOL1         0.2972
     107    H51     20.880941   13.150950   19.778312 H          1 MOL1         0.0751
     108    O26     20.245734   14.832716   20.883255 O.3        1 MOL1        -0.3740
     109    C32     22.332558   13.680102   21.345801 C.3        1 MOL1         0.1003
     110    H52     23.159880   13.176820   20.828691 H          1 MOL1         0.0783
     111    O27     21.787680   12.784486   22.327144 O.3        1 MOL1        -0.5519
     112    H53     20.994399   13.230328   22.720058 H          1 MOL1         0.3769
     113    C33     22.904475   14.952370   22.023796 C.3        1 MOL1         0.1053
     114    H54     22.108326   15.408847   22.630056 H          1 MOL1         0.0783
     115    O28     23.992762   14.550276   22.862569 O.3        1 MOL1        -0.5519
     116    H55     23.640364   13.808943   23.402335 H          1 MOL1         0.3769
     117    C34     23.379804   16.006399   20.979292 C.3        1 MOL1         0.1018
     118    H56     24.364665   15.715009   20.594100 H          1 MOL1         0.0783
     119    C35     22.380577   16.173393   19.798292 C.3        1 MOL1         0.1043
     120    H57     21.502552   16.711235   20.177781 H          1 MOL1         0.0783
     121    O29     21.957944   14.880527   19.302143 O.3        1 MOL1        -0.3740
     122    C36     22.927568   17.009034   18.614416 C.3        1 MOL1         0.0138
     123    H58     22.891643   18.070193   18.891889 H          1 MOL1         0.0794
     124    H59     22.251738   16.882158   17.758340 H          1 MOL1         0.0794
     125    O30     24.264072   16.647135   18.244732 O.3        1 MOL1        -0.5486
     126    H60     24.856950   16.919948   18.977109 H          1 MOL1         0.3769
     127    C1      20.107314   18.586661   23.096092 C.2        1 MOL1         0.6021
     128    O1      20.661792   17.561668   23.440618 O.co2      1 MOL1        -0.6904
     129    O2      20.203065   19.635001   23.706695 O.co2      1 MOL1        -0.6904
     130    C2      19.410577   18.593992   21.738460 C.3        1 MOL1        -0.2102
     131    H1      18.445626   19.093492   21.866109 H          1 MOL1         0.0687
     132    H2      19.210513   17.554486   21.456976 H          1 MOL1         0.0687
     133    C3      20.230950   19.294096   20.627998 C.3        1 MOL1        -0.1974
     134    H3      20.263597   20.370304   20.838152 H          1 MOL1         0.0689
     135    H4      21.267274   18.937466   20.655419 H          1 MOL1         0.0689
     136    C4      19.650623   19.036236   19.222972 C.3        1 MOL1        -0.2987
     137    H5      18.614872   19.381225   19.155412 H          1 MOL1         0.0700
     138    H6      20.237106   19.564610   18.460557 H          1 MOL1         0.0700
     139    H7      19.668490   17.964989   18.984206 H          1 MOL1         0.0700
@<TRIPOS>BOND
    1     1     2    1
    2     1     3    1
    3     1     4    1
    4     4     5    1
    5     4     6    1
    6     6     7    1
    7     4     8    1
    8     8     9    1
    9     8    10    1
   10    10    11    1
   11     8    12    1
   12    12    13    1
   13    12    14    1
   14    14    15    1
   15     1    16    1
   16    14    16    1
   17    14    17    1
   18    17    18    1
   19    17    19    1
   20    17    20    1
   21    20    21    1
   22    22    23    1
   23    22    24    1
   24    22    25    1
   25    25    26    1
   26    25    27    1
   27    27    28    1
   28    25    29    1
   29    29    30    1
   30    29    31    1
   31    31    32    1
   32     3    33    1
   33    29    33    1
   34    33    34    1
   35    33    35    1
   36    35    36    1
   37    22    37    1
   38    35    37    1
   39    35    38    1
   40    38    39    1
   41    38    40    1
   42    38    41    1
   43    41    42    1
   44    43    44    1
   45    43    45    1
   46    43    46    1
   47    46    47    1
   48    46    48    1
   49    48    49    1
   50    46    50    1
   51    50    51    1
   52    50    52    1
   53    52    53    1
   54    24    54    1
   55    50    54    1
   56    54    55    1
   57    54    56    1
   58    56    57    1
   59    43    58    1
   60    56    58    1
   61    56    59    1
   62    59    60    1
   63    59    61    1
   64    59    62    1
   65    62    63    1
   66    64    65    1
   67    64    66    1
   68    64    67    1
   69    67    68    1
   70    67    69    1
   71    69    70    1
   72    67    71    1
   73    71    72    1
   74    71    73    1
   75    73    74    1
   76    45    75    1
   77    71    75    1
   78    75    76    1
   79    75    77    1
   80    77    78    1
   81    64    79    1
   82    77    79    1
   83    77    80    1
   84    80    81    1
   85    80    82    1
   86    80    83    1
   87    83    84    1
   88    85    86    1
   89    85    87    1
   90    85    88    1
   91    88    89    1
   92    88    90    1
   93    90    91    1
   94    88    92    1
   95    92    93    1
   96    92    94    1
   97    94    95    1
   98    66    96    1
   99    92    96    1
  100    96    97    1
  101    96    98    1
  102    98    99    1
  103    85   100    1
  104    98   100    1
  105    98   101    1
  106   101   102    1
  107   101   103    1
  108   101   104    1
  109   104   105    1
  110   106   107    1
  111    12   108    1
  112   106   108    1
  113   106   109    1
  114   109   110    1
  115   109   111    1
  116   111   112    1
  117   109   113    1
  118   113   114    1
  119   113   115    1
  120   115   116    1
  121    87   117    1
  122   113   117    1
  123   117   118    1
  124   117   119    1
  125   119   120    1
  126   106   121    1
  127   119   121    1
  128   119   122    1
  129   122   123    1
  130   122   124    1
  131   122   125    1
  132   125   126    1
  133   127   128    1
  134   127   129    2
  135   127   130    1
  136   130   131    1
  137   130   132    1
  138   130   133    1
  139   133   134    1
  140   133   135    1
  141   133   136    1
  142   136   137    1
  143   136   138    1
  144   136   139    1
@<TRIPOS>SUBSTRUCTURE
       1 MOL1            1 RESIDUE      1      MOL     
       2 MOL1          139 RESIDUE      1      MOL     
@<SCITEGIC>MOL_PROPERTY
feprocess Rank
SciTegic.value.IntegerValue
1

@<SCITEGIC>MOL_PROPERTY
Conf_Id
SciTegic.value.IntegerValue
1

@<SCITEGIC>MOL_PROPERTY
Probability
SciTegic.value.DoubleValue
100.00

@<SCITEGIC>MOL_PROPERTY
G
SciTegic.value.DoubleValue
486.207

@<SCITEGIC>MOL_PROPERTY
E
SciTegic.value.DoubleValue
311.104

@<SCITEGIC>MOL_PROPERTY
-TS
SciTegic.value.DoubleValue
175.103

@<SCITEGIC>MOL_PROPERTY
U+W
SciTegic.value.DoubleValue
188.593

@<SCITEGIC>MOL_PROPERTY
U
SciTegic.value.DoubleValue
263.556

@<SCITEGIC>MOL_PROPERTY
W
SciTegic.value.DoubleValue
-74.963

@<SCITEGIC>MOL_PROPERTY
W(PB)
SciTegic.value.DoubleValue
-80.874

@<SCITEGIC>MOL_PROPERTY
W(SA)
SciTegic.value.DoubleValue
5.911

@<SCITEGIC>MOL_PROPERTY
Valence
SciTegic.value.DoubleValue
152.887

@<SCITEGIC>MOL_PROPERTY
Coulomb
SciTegic.value.DoubleValue
134.150

@<SCITEGIC>MOL_PROPERTY
VdW
SciTegic.value.DoubleValue
-23.481

@<SCITEGIC>MOL_PROPERTY
VdW6
SciTegic.value.DoubleValue
-176.092

@<SCITEGIC>MOL_PROPERTY
VdW12
SciTegic.value.DoubleValue
152.611

@<SCITEGIC>MOL_PROPERTY
Bond
SciTegic.value.DoubleValue
4.903

@<SCITEGIC>MOL_PROPERTY
Angle
SciTegic.value.DoubleValue
14.755

@<SCITEGIC>MOL_PROPERTY
Pdih
SciTegic.value.DoubleValue
133.184

@<SCITEGIC>MOL_PROPERTY
Idih
SciTegic.value.DoubleValue
0.045

@<SCITEGIC>MOL_PROPERTY
Tether
SciTegic.value.DoubleValue
0.000

